
---------- Begin Simulation Statistics ----------
simSeconds                                   0.003970                       # Number of seconds simulated (Second)
simTicks                                   3970411000                       # Number of ticks simulated (Tick)
finalTick                                  3970411000                       # Number of ticks from beginning of simulation (restored from checkpoints and never reset) (Tick)
simFreq                                  1000000000000                       # The number of ticks per simulated second ((Tick/Second))
hostSeconds                                     25.95                       # Real time elapsed on the host (Second)
hostTickRate                                152973643                       # The number of ticks simulated per host second (ticks/s) ((Tick/Second))
hostMemory                                     653932                       # Number of bytes of host memory used (Byte)
simInsts                                      8104168                       # Number of instructions simulated (Count)
simOps                                       14470625                       # Number of ops (including micro ops) simulated (Count)
hostInstRate                                   312239                       # Simulator instruction rate (inst/s) ((Count/Second))
hostOpRate                                     557526                       # Simulator op (including micro ops) rate (op/s) ((Count/Second))
system.clk_domain.clock                          1000                       # Clock period in ticks (Tick)
system.cpu.numCycles                          3970412                       # Number of cpu cycles simulated (Cycle)
system.cpu.numWorkItemsStarted                      0                       # Number of work items this cpu started (Count)
system.cpu.numWorkItemsCompleted                    0                       # Number of work items this cpu completed (Count)
system.cpu.instsAdded                        14488419                       # Number of instructions added to the IQ (excludes non-spec) (Count)
system.cpu.nonSpecInstsAdded                        7                       # Number of non-speculative instructions added to the IQ (Count)
system.cpu.instsIssued                       14496094                       # Number of instructions issued (Count)
system.cpu.squashedInstsIssued                    621                       # Number of squashed instructions issued (Count)
system.cpu.squashedInstsExamined                17795                       # Number of squashed instructions iterated over during squash; mainly for profiling (Count)
system.cpu.squashedOperandsExamined             19283                       # Number of squashed operands that are examined and possibly removed from graph (Count)
system.cpu.squashedNonSpecRemoved                   7                       # Number of squashed non-spec instructions that were removed (Count)
system.cpu.numIssuedDist::samples             3960985                       # Number of insts issued each cycle (Count)
system.cpu.numIssuedDist::mean               3.659719                       # Number of insts issued each cycle (Count)
system.cpu.numIssuedDist::stdev              2.734555                       # Number of insts issued each cycle (Count)
system.cpu.numIssuedDist::underflows                0      0.00%      0.00% # Number of insts issued each cycle (Count)
system.cpu.numIssuedDist::0                    358816      9.06%      9.06% # Number of insts issued each cycle (Count)
system.cpu.numIssuedDist::1                   1104514     27.88%     36.94% # Number of insts issued each cycle (Count)
system.cpu.numIssuedDist::2                    359752      9.08%     46.03% # Number of insts issued each cycle (Count)
system.cpu.numIssuedDist::3                    210597      5.32%     51.34% # Number of insts issued each cycle (Count)
system.cpu.numIssuedDist::4                    267766      6.76%     58.10% # Number of insts issued each cycle (Count)
system.cpu.numIssuedDist::5                    197715      4.99%     63.09% # Number of insts issued each cycle (Count)
system.cpu.numIssuedDist::6                    578764     14.61%     77.71% # Number of insts issued each cycle (Count)
system.cpu.numIssuedDist::7                    556426     14.05%     91.75% # Number of insts issued each cycle (Count)
system.cpu.numIssuedDist::8                    326635      8.25%    100.00% # Number of insts issued each cycle (Count)
system.cpu.numIssuedDist::overflows                 0      0.00%    100.00% # Number of insts issued each cycle (Count)
system.cpu.numIssuedDist::min_value                 0                       # Number of insts issued each cycle (Count)
system.cpu.numIssuedDist::max_value                 8                       # Number of insts issued each cycle (Count)
system.cpu.numIssuedDist::total               3960985                       # Number of insts issued each cycle (Count)
system.cpu.statFuBusy::No_OpClass                   0      0.00%      0.00% # attempts to use FU when none available (Count)
system.cpu.statFuBusy::IntAlu                     274      0.12%      0.12% # attempts to use FU when none available (Count)
system.cpu.statFuBusy::IntMult                      0      0.00%      0.12% # attempts to use FU when none available (Count)
system.cpu.statFuBusy::IntDiv                       0      0.00%      0.12% # attempts to use FU when none available (Count)
system.cpu.statFuBusy::FloatAdd                 88348     37.37%     37.48% # attempts to use FU when none available (Count)
system.cpu.statFuBusy::FloatCmp                     0      0.00%     37.48% # attempts to use FU when none available (Count)
system.cpu.statFuBusy::FloatCvt                     0      0.00%     37.48% # attempts to use FU when none available (Count)
system.cpu.statFuBusy::FloatMult                    0      0.00%     37.48% # attempts to use FU when none available (Count)
system.cpu.statFuBusy::FloatMultAcc                 0      0.00%     37.48% # attempts to use FU when none available (Count)
system.cpu.statFuBusy::FloatDiv                     0      0.00%     37.48% # attempts to use FU when none available (Count)
system.cpu.statFuBusy::FloatMisc                    0      0.00%     37.48% # attempts to use FU when none available (Count)
system.cpu.statFuBusy::FloatSqrt                    0      0.00%     37.48% # attempts to use FU when none available (Count)
system.cpu.statFuBusy::SimdAdd                      0      0.00%     37.48% # attempts to use FU when none available (Count)
system.cpu.statFuBusy::SimdAddAcc                   0      0.00%     37.48% # attempts to use FU when none available (Count)
system.cpu.statFuBusy::SimdAlu                     14      0.01%     37.49% # attempts to use FU when none available (Count)
system.cpu.statFuBusy::SimdCmp                      0      0.00%     37.49% # attempts to use FU when none available (Count)
system.cpu.statFuBusy::SimdCvt                      0      0.00%     37.49% # attempts to use FU when none available (Count)
system.cpu.statFuBusy::SimdMisc                 33822     14.31%     51.80% # attempts to use FU when none available (Count)
system.cpu.statFuBusy::SimdMult                     0      0.00%     51.80% # attempts to use FU when none available (Count)
system.cpu.statFuBusy::SimdMultAcc                  0      0.00%     51.80% # attempts to use FU when none available (Count)
system.cpu.statFuBusy::SimdShift                    0      0.00%     51.80% # attempts to use FU when none available (Count)
system.cpu.statFuBusy::SimdShiftAcc                 0      0.00%     51.80% # attempts to use FU when none available (Count)
system.cpu.statFuBusy::SimdDiv                      0      0.00%     51.80% # attempts to use FU when none available (Count)
system.cpu.statFuBusy::SimdSqrt                     0      0.00%     51.80% # attempts to use FU when none available (Count)
system.cpu.statFuBusy::SimdFloatAdd             26556     11.23%     63.03% # attempts to use FU when none available (Count)
system.cpu.statFuBusy::SimdFloatAlu                 0      0.00%     63.03% # attempts to use FU when none available (Count)
system.cpu.statFuBusy::SimdFloatCmp                 0      0.00%     63.03% # attempts to use FU when none available (Count)
system.cpu.statFuBusy::SimdFloatCvt                 0      0.00%     63.03% # attempts to use FU when none available (Count)
system.cpu.statFuBusy::SimdFloatDiv                 0      0.00%     63.03% # attempts to use FU when none available (Count)
system.cpu.statFuBusy::SimdFloatMisc                0      0.00%     63.03% # attempts to use FU when none available (Count)
system.cpu.statFuBusy::SimdFloatMult            85250     36.06%     99.09% # attempts to use FU when none available (Count)
system.cpu.statFuBusy::SimdFloatMultAcc             0      0.00%     99.09% # attempts to use FU when none available (Count)
system.cpu.statFuBusy::SimdFloatSqrt                0      0.00%     99.09% # attempts to use FU when none available (Count)
system.cpu.statFuBusy::SimdReduceAdd                0      0.00%     99.09% # attempts to use FU when none available (Count)
system.cpu.statFuBusy::SimdReduceAlu                0      0.00%     99.09% # attempts to use FU when none available (Count)
system.cpu.statFuBusy::SimdReduceCmp                0      0.00%     99.09% # attempts to use FU when none available (Count)
system.cpu.statFuBusy::SimdFloatReduceAdd            0      0.00%     99.09% # attempts to use FU when none available (Count)
system.cpu.statFuBusy::SimdFloatReduceCmp            0      0.00%     99.09% # attempts to use FU when none available (Count)
system.cpu.statFuBusy::SimdAes                      0      0.00%     99.09% # attempts to use FU when none available (Count)
system.cpu.statFuBusy::SimdAesMix                   0      0.00%     99.09% # attempts to use FU when none available (Count)
system.cpu.statFuBusy::SimdSha1Hash                 0      0.00%     99.09% # attempts to use FU when none available (Count)
system.cpu.statFuBusy::SimdSha1Hash2                0      0.00%     99.09% # attempts to use FU when none available (Count)
system.cpu.statFuBusy::SimdSha256Hash               0      0.00%     99.09% # attempts to use FU when none available (Count)
system.cpu.statFuBusy::SimdSha256Hash2              0      0.00%     99.09% # attempts to use FU when none available (Count)
system.cpu.statFuBusy::SimdShaSigma2                0      0.00%     99.09% # attempts to use FU when none available (Count)
system.cpu.statFuBusy::SimdShaSigma3                0      0.00%     99.09% # attempts to use FU when none available (Count)
system.cpu.statFuBusy::SimdPredAlu                  0      0.00%     99.09% # attempts to use FU when none available (Count)
system.cpu.statFuBusy::MemRead                     28      0.01%     99.10% # attempts to use FU when none available (Count)
system.cpu.statFuBusy::MemWrite                    21      0.01%     99.11% # attempts to use FU when none available (Count)
system.cpu.statFuBusy::FloatMemRead              2103      0.89%    100.00% # attempts to use FU when none available (Count)
system.cpu.statFuBusy::FloatMemWrite                8      0.00%    100.00% # attempts to use FU when none available (Count)
system.cpu.statFuBusy::IprAccess                    0      0.00%    100.00% # attempts to use FU when none available (Count)
system.cpu.statFuBusy::InstPrefetch                 0      0.00%    100.00% # attempts to use FU when none available (Count)
system.cpu.statIssuedInstType_0::No_OpClass          882      0.01%      0.01% # Number of instructions issued per FU type, per thread (Count)
system.cpu.statIssuedInstType_0::IntAlu       2547056     17.57%     17.58% # Number of instructions issued per FU type, per thread (Count)
system.cpu.statIssuedInstType_0::IntMult            5      0.00%     17.58% # Number of instructions issued per FU type, per thread (Count)
system.cpu.statIssuedInstType_0::IntDiv            25      0.00%     17.58% # Number of instructions issued per FU type, per thread (Count)
system.cpu.statIssuedInstType_0::FloatAdd      4720919     32.57%     50.14% # Number of instructions issued per FU type, per thread (Count)
system.cpu.statIssuedInstType_0::FloatCmp            0      0.00%     50.14% # Number of instructions issued per FU type, per thread (Count)
system.cpu.statIssuedInstType_0::FloatCvt            0      0.00%     50.14% # Number of instructions issued per FU type, per thread (Count)
system.cpu.statIssuedInstType_0::FloatMult            0      0.00%     50.14% # Number of instructions issued per FU type, per thread (Count)
system.cpu.statIssuedInstType_0::FloatMultAcc            0      0.00%     50.14% # Number of instructions issued per FU type, per thread (Count)
system.cpu.statIssuedInstType_0::FloatDiv            0      0.00%     50.14% # Number of instructions issued per FU type, per thread (Count)
system.cpu.statIssuedInstType_0::FloatMisc            0      0.00%     50.14% # Number of instructions issued per FU type, per thread (Count)
system.cpu.statIssuedInstType_0::FloatSqrt            0      0.00%     50.14% # Number of instructions issued per FU type, per thread (Count)
system.cpu.statIssuedInstType_0::SimdAdd            0      0.00%     50.14% # Number of instructions issued per FU type, per thread (Count)
system.cpu.statIssuedInstType_0::SimdAddAcc            0      0.00%     50.14% # Number of instructions issued per FU type, per thread (Count)
system.cpu.statIssuedInstType_0::SimdAlu          163      0.00%     50.14% # Number of instructions issued per FU type, per thread (Count)
system.cpu.statIssuedInstType_0::SimdCmp            0      0.00%     50.14% # Number of instructions issued per FU type, per thread (Count)
system.cpu.statIssuedInstType_0::SimdCvt           48      0.00%     50.15% # Number of instructions issued per FU type, per thread (Count)
system.cpu.statIssuedInstType_0::SimdMisc       262368      1.81%     51.96% # Number of instructions issued per FU type, per thread (Count)
system.cpu.statIssuedInstType_0::SimdMult            0      0.00%     51.96% # Number of instructions issued per FU type, per thread (Count)
system.cpu.statIssuedInstType_0::SimdMultAcc            0      0.00%     51.96% # Number of instructions issued per FU type, per thread (Count)
system.cpu.statIssuedInstType_0::SimdShift            0      0.00%     51.96% # Number of instructions issued per FU type, per thread (Count)
system.cpu.statIssuedInstType_0::SimdShiftAcc            0      0.00%     51.96% # Number of instructions issued per FU type, per thread (Count)
system.cpu.statIssuedInstType_0::SimdDiv            0      0.00%     51.96% # Number of instructions issued per FU type, per thread (Count)
system.cpu.statIssuedInstType_0::SimdSqrt            0      0.00%     51.96% # Number of instructions issued per FU type, per thread (Count)
system.cpu.statIssuedInstType_0::SimdFloatAdd      2097152     14.47%     66.42% # Number of instructions issued per FU type, per thread (Count)
system.cpu.statIssuedInstType_0::SimdFloatAlu            0      0.00%     66.42% # Number of instructions issued per FU type, per thread (Count)
system.cpu.statIssuedInstType_0::SimdFloatCmp            0      0.00%     66.42% # Number of instructions issued per FU type, per thread (Count)
system.cpu.statIssuedInstType_0::SimdFloatCvt            0      0.00%     66.42% # Number of instructions issued per FU type, per thread (Count)
system.cpu.statIssuedInstType_0::SimdFloatDiv            0      0.00%     66.42% # Number of instructions issued per FU type, per thread (Count)
system.cpu.statIssuedInstType_0::SimdFloatMisc            0      0.00%     66.42% # Number of instructions issued per FU type, per thread (Count)
system.cpu.statIssuedInstType_0::SimdFloatMult      2097152     14.47%     80.89% # Number of instructions issued per FU type, per thread (Count)
system.cpu.statIssuedInstType_0::SimdFloatMultAcc            0      0.00%     80.89% # Number of instructions issued per FU type, per thread (Count)
system.cpu.statIssuedInstType_0::SimdFloatSqrt            0      0.00%     80.89% # Number of instructions issued per FU type, per thread (Count)
system.cpu.statIssuedInstType_0::SimdReduceAdd            0      0.00%     80.89% # Number of instructions issued per FU type, per thread (Count)
system.cpu.statIssuedInstType_0::SimdReduceAlu            0      0.00%     80.89% # Number of instructions issued per FU type, per thread (Count)
system.cpu.statIssuedInstType_0::SimdReduceCmp            0      0.00%     80.89% # Number of instructions issued per FU type, per thread (Count)
system.cpu.statIssuedInstType_0::SimdFloatReduceAdd            0      0.00%     80.89% # Number of instructions issued per FU type, per thread (Count)
system.cpu.statIssuedInstType_0::SimdFloatReduceCmp            0      0.00%     80.89% # Number of instructions issued per FU type, per thread (Count)
system.cpu.statIssuedInstType_0::SimdAes            0      0.00%     80.89% # Number of instructions issued per FU type, per thread (Count)
system.cpu.statIssuedInstType_0::SimdAesMix            0      0.00%     80.89% # Number of instructions issued per FU type, per thread (Count)
system.cpu.statIssuedInstType_0::SimdSha1Hash            0      0.00%     80.89% # Number of instructions issued per FU type, per thread (Count)
system.cpu.statIssuedInstType_0::SimdSha1Hash2            0      0.00%     80.89% # Number of instructions issued per FU type, per thread (Count)
system.cpu.statIssuedInstType_0::SimdSha256Hash            0      0.00%     80.89% # Number of instructions issued per FU type, per thread (Count)
system.cpu.statIssuedInstType_0::SimdSha256Hash2            0      0.00%     80.89% # Number of instructions issued per FU type, per thread (Count)
system.cpu.statIssuedInstType_0::SimdShaSigma2            0      0.00%     80.89% # Number of instructions issued per FU type, per thread (Count)
system.cpu.statIssuedInstType_0::SimdShaSigma3            0      0.00%     80.89% # Number of instructions issued per FU type, per thread (Count)
system.cpu.statIssuedInstType_0::SimdPredAlu            0      0.00%     80.89% # Number of instructions issued per FU type, per thread (Count)
system.cpu.statIssuedInstType_0::MemRead         2773      0.02%     80.91% # Number of instructions issued per FU type, per thread (Count)
system.cpu.statIssuedInstType_0::MemWrite         1714      0.01%     80.92% # Number of instructions issued per FU type, per thread (Count)
system.cpu.statIssuedInstType_0::FloatMemRead      2634233     18.17%     99.09% # Number of instructions issued per FU type, per thread (Count)
system.cpu.statIssuedInstType_0::FloatMemWrite       131604      0.91%    100.00% # Number of instructions issued per FU type, per thread (Count)
system.cpu.statIssuedInstType_0::IprAccess            0      0.00%    100.00% # Number of instructions issued per FU type, per thread (Count)
system.cpu.statIssuedInstType_0::InstPrefetch            0      0.00%    100.00% # Number of instructions issued per FU type, per thread (Count)
system.cpu.statIssuedInstType_0::total       14496094                       # Number of instructions issued per FU type, per thread (Count)
system.cpu.issueRate                         3.651030                       # Inst issue rate ((Count/Cycle))
system.cpu.fuBusy                              236424                       # FU busy when requested (Count)
system.cpu.fuBusyRate                        0.016309                       # FU busy rate (busy events/executed inst) ((Count/Count))
system.cpu.intInstQueueReads                  8934934                       # Number of integer instruction queue reads (Count)
system.cpu.intInstQueueWrites                 2503746                       # Number of integer instruction queue writes (Count)
system.cpu.intInstQueueWakeupAccesses         2485174                       # Number of integer instruction queue wakeup accesses (Count)
system.cpu.fpInstQueueReads                  24255284                       # Number of floating instruction queue reads (Count)
system.cpu.fpInstQueueWrites                 12002485                       # Number of floating instruction queue writes (Count)
system.cpu.fpInstQueueWakeupAccesses         11995457                       # Number of floating instruction queue wakeup accesses (Count)
system.cpu.vecInstQueueReads                        0                       # Number of vector instruction queue reads (Count)
system.cpu.vecInstQueueWrites                       0                       # Number of vector instruction queue writes (Count)
system.cpu.vecInstQueueWakeupAccesses               0                       # Number of vector instruction queue wakeup accesses (Count)
system.cpu.intAluAccesses                     2486219                       # Number of integer alu accesses (Count)
system.cpu.fpAluAccesses                     12245417                       # Number of floating point alu accesses (Count)
system.cpu.vecAluAccesses                           0                       # Number of vector alu accesses (Count)
system.cpu.numInsts                          14493522                       # Number of executed instructions (Count)
system.cpu.numLoadInsts                       2636268                       # Number of load instructions executed (Count)
system.cpu.numSquashedInsts                      2572                       # Number of squashed instructions skipped in execute (Count)
system.cpu.numSwp                                   0                       # Number of swp insts executed (Count)
system.cpu.numNop                                   0                       # Number of nop insts executed (Count)
system.cpu.numRefs                            2769488                       # Number of memory reference insts executed (Count)
system.cpu.numBranches                         297518                       # Number of branches executed (Count)
system.cpu.numStoreInsts                       133220                       # Number of stores executed (Count)
system.cpu.numRate                           3.650382                       # Inst execution rate ((Count/Cycle))
system.cpu.timesIdled                             289                       # Number of times that the entire CPU went into an idle state and unscheduled itself (Count)
system.cpu.idleCycles                            9427                       # Total number of cycles that the CPU has spent unscheduled due to idling (Cycle)
system.cpu.committedInsts                     8104168                       # Number of Instructions Simulated (Count)
system.cpu.committedOps                      14470625                       # Number of Ops (including micro ops) Simulated (Count)
system.cpu.cpi                               0.489922                       # CPI: Cycles Per Instruction ((Cycle/Count))
system.cpu.totalCpi                          0.489922                       # CPI: Total CPI of All Threads ((Cycle/Count))
system.cpu.ipc                               2.041140                       # IPC: Instructions Per Cycle ((Count/Cycle))
system.cpu.totalIpc                          2.041140                       # IPC: Total IPC of All Threads ((Count/Cycle))
system.cpu.intRegfileReads                    8125015                       # Number of integer regfile reads (Count)
system.cpu.intRegfileWrites                   2152751                       # Number of integer regfile writes (Count)
system.cpu.fpRegfileReads                    13370889                       # Number of floating regfile reads (Count)
system.cpu.fpRegfileWrites                   11863817                       # Number of floating regfile writes (Count)
system.cpu.ccRegfileReads                     1486493                       # number of cc regfile reads (Count)
system.cpu.ccRegfileWrites                    1779224                       # number of cc regfile writes (Count)
system.cpu.miscRegfileReads                   3365607                       # number of misc regfile reads (Count)
system.cpu.MemDepUnit__0.insertedLoads        2625628                       # Number of loads inserted to the mem dependence unit. (Count)
system.cpu.MemDepUnit__0.insertedStores        133750                       # Number of stores inserted to the mem dependence unit. (Count)
system.cpu.MemDepUnit__0.conflictingLoads           24                       # Number of conflicting loads. (Count)
system.cpu.MemDepUnit__0.conflictingStores            3                       # Number of conflicting stores. (Count)
system.cpu.MemDepUnit__1.insertedLoads              0                       # Number of loads inserted to the mem dependence unit. (Count)
system.cpu.MemDepUnit__1.insertedStores             0                       # Number of stores inserted to the mem dependence unit. (Count)
system.cpu.MemDepUnit__1.conflictingLoads            0                       # Number of conflicting loads. (Count)
system.cpu.MemDepUnit__1.conflictingStores            0                       # Number of conflicting stores. (Count)
system.cpu.MemDepUnit__2.insertedLoads              0                       # Number of loads inserted to the mem dependence unit. (Count)
system.cpu.MemDepUnit__2.insertedStores             0                       # Number of stores inserted to the mem dependence unit. (Count)
system.cpu.MemDepUnit__2.conflictingLoads            0                       # Number of conflicting loads. (Count)
system.cpu.MemDepUnit__2.conflictingStores            0                       # Number of conflicting stores. (Count)
system.cpu.MemDepUnit__3.insertedLoads              0                       # Number of loads inserted to the mem dependence unit. (Count)
system.cpu.MemDepUnit__3.insertedStores             0                       # Number of stores inserted to the mem dependence unit. (Count)
system.cpu.MemDepUnit__3.conflictingLoads            0                       # Number of conflicting loads. (Count)
system.cpu.MemDepUnit__3.conflictingStores            0                       # Number of conflicting stores. (Count)
system.cpu.branchPred.lookups                  299248                       # Number of BP lookups (Count)
system.cpu.branchPred.condPredicted            298028                       # Number of conditional branches predicted (Count)
system.cpu.branchPred.condIncorrect               968                       # Number of conditional branches incorrect (Count)
system.cpu.branchPred.BTBLookups               264278                       # Number of BTB lookups (Count)
system.cpu.branchPred.BTBHits                  263511                       # Number of BTB hits (Count)
system.cpu.branchPred.BTBHitRatio            0.997098                       # BTB Hit Ratio (Ratio)
system.cpu.branchPred.RASUsed                     283                       # Number of times the RAS was used to get a target. (Count)
system.cpu.branchPred.RASIncorrect                  0                       # Number of incorrect RAS predictions. (Count)
system.cpu.branchPred.indirectLookups             324                       # Number of indirect predictor lookups. (Count)
system.cpu.branchPred.indirectHits                 14                       # Number of indirect target hits. (Count)
system.cpu.branchPred.indirectMisses              310                       # Number of indirect misses. (Count)
system.cpu.branchPred.indirectMispredicted           97                       # Number of mispredicted indirect branches. (Count)
system.cpu.commit.commitSquashedInsts           17578                       # The number of squashed insts skipped by commit (Count)
system.cpu.commit.branchMispredicts               824                       # The number of times a branch was mispredicted (Count)
system.cpu.commit.numCommittedDist::samples      3958345                       # Number of insts commited each cycle (Count)
system.cpu.commit.numCommittedDist::mean     3.655726                       # Number of insts commited each cycle (Count)
system.cpu.commit.numCommittedDist::stdev     2.962512                       # Number of insts commited each cycle (Count)
system.cpu.commit.numCommittedDist::underflows            0      0.00%      0.00% # Number of insts commited each cycle (Count)
system.cpu.commit.numCommittedDist::0          857486     21.66%     21.66% # Number of insts commited each cycle (Count)
system.cpu.commit.numCommittedDist::1          582477     14.72%     36.38% # Number of insts commited each cycle (Count)
system.cpu.commit.numCommittedDist::2          300585      7.59%     43.97% # Number of insts commited each cycle (Count)
system.cpu.commit.numCommittedDist::3           48232      1.22%     45.19% # Number of insts commited each cycle (Count)
system.cpu.commit.numCommittedDist::4          404088     10.21%     55.40% # Number of insts commited each cycle (Count)
system.cpu.commit.numCommittedDist::5          789828     19.95%     75.35% # Number of insts commited each cycle (Count)
system.cpu.commit.numCommittedDist::6           97715      2.47%     77.82% # Number of insts commited each cycle (Count)
system.cpu.commit.numCommittedDist::7           32972      0.83%     78.65% # Number of insts commited each cycle (Count)
system.cpu.commit.numCommittedDist::8          844962     21.35%    100.00% # Number of insts commited each cycle (Count)
system.cpu.commit.numCommittedDist::overflows            0      0.00%    100.00% # Number of insts commited each cycle (Count)
system.cpu.commit.numCommittedDist::min_value            0                       # Number of insts commited each cycle (Count)
system.cpu.commit.numCommittedDist::max_value            8                       # Number of insts commited each cycle (Count)
system.cpu.commit.numCommittedDist::total      3958345                       # Number of insts commited each cycle (Count)
system.cpu.commit.instsCommitted              8104168                       # Number of instructions committed (Count)
system.cpu.commit.opsCommitted               14470625                       # Number of ops (including micro ops) committed (Count)
system.cpu.commit.memRefs                     2755586                       # Number of memory references committed (Count)
system.cpu.commit.loads                       2622923                       # Number of loads committed (Count)
system.cpu.commit.amos                              0                       # Number of atomic instructions committed (Count)
system.cpu.commit.membars                           0                       # Number of memory barriers committed (Count)
system.cpu.commit.branches                     296839                       # Number of branches committed (Count)
system.cpu.commit.vectorInstructions                0                       # Number of committed Vector instructions. (Count)
system.cpu.commit.floating                   11994221                       # Number of committed floating point instructions. (Count)
system.cpu.commit.integer                     5196284                       # Number of committed integer instructions. (Count)
system.cpu.commit.functionCalls                   144                       # Number of function calls committed. (Count)
system.cpu.commit.committedInstType_0::No_OpClass          443      0.00%      0.00% # Class of committed instruction (Count)
system.cpu.commit.committedInstType_0::IntAlu      2539040     17.55%     17.55% # Class of committed instruction (Count)
system.cpu.commit.committedInstType_0::IntMult            5      0.00%     17.55% # Class of committed instruction (Count)
system.cpu.commit.committedInstType_0::IntDiv           21      0.00%     17.55% # Class of committed instruction (Count)
system.cpu.commit.committedInstType_0::FloatAdd      4718727     32.61%     50.16% # Class of committed instruction (Count)
system.cpu.commit.committedInstType_0::FloatCmp            0      0.00%     50.16% # Class of committed instruction (Count)
system.cpu.commit.committedInstType_0::FloatCvt            0      0.00%     50.16% # Class of committed instruction (Count)
system.cpu.commit.committedInstType_0::FloatMult            0      0.00%     50.16% # Class of committed instruction (Count)
system.cpu.commit.committedInstType_0::FloatMultAcc            0      0.00%     50.16% # Class of committed instruction (Count)
system.cpu.commit.committedInstType_0::FloatDiv            0      0.00%     50.16% # Class of committed instruction (Count)
system.cpu.commit.committedInstType_0::FloatMisc            0      0.00%     50.16% # Class of committed instruction (Count)
system.cpu.commit.committedInstType_0::FloatSqrt            0      0.00%     50.16% # Class of committed instruction (Count)
system.cpu.commit.committedInstType_0::SimdAdd            0      0.00%     50.16% # Class of committed instruction (Count)
system.cpu.commit.committedInstType_0::SimdAddAcc            0      0.00%     50.16% # Class of committed instruction (Count)
system.cpu.commit.committedInstType_0::SimdAlu           94      0.00%     50.16% # Class of committed instruction (Count)
system.cpu.commit.committedInstType_0::SimdCmp            0      0.00%     50.16% # Class of committed instruction (Count)
system.cpu.commit.committedInstType_0::SimdCvt           46      0.00%     50.16% # Class of committed instruction (Count)
system.cpu.commit.committedInstType_0::SimdMisc       262359      1.81%     51.97% # Class of committed instruction (Count)
system.cpu.commit.committedInstType_0::SimdMult            0      0.00%     51.97% # Class of committed instruction (Count)
system.cpu.commit.committedInstType_0::SimdMultAcc            0      0.00%     51.97% # Class of committed instruction (Count)
system.cpu.commit.committedInstType_0::SimdShift            0      0.00%     51.97% # Class of committed instruction (Count)
system.cpu.commit.committedInstType_0::SimdShiftAcc            0      0.00%     51.97% # Class of committed instruction (Count)
system.cpu.commit.committedInstType_0::SimdDiv            0      0.00%     51.97% # Class of committed instruction (Count)
system.cpu.commit.committedInstType_0::SimdSqrt            0      0.00%     51.97% # Class of committed instruction (Count)
system.cpu.commit.committedInstType_0::SimdFloatAdd      2097152     14.49%     66.46% # Class of committed instruction (Count)
system.cpu.commit.committedInstType_0::SimdFloatAlu            0      0.00%     66.46% # Class of committed instruction (Count)
system.cpu.commit.committedInstType_0::SimdFloatCmp            0      0.00%     66.46% # Class of committed instruction (Count)
system.cpu.commit.committedInstType_0::SimdFloatCvt            0      0.00%     66.46% # Class of committed instruction (Count)
system.cpu.commit.committedInstType_0::SimdFloatDiv            0      0.00%     66.46% # Class of committed instruction (Count)
system.cpu.commit.committedInstType_0::SimdFloatMisc            0      0.00%     66.46% # Class of committed instruction (Count)
system.cpu.commit.committedInstType_0::SimdFloatMult      2097152     14.49%     80.96% # Class of committed instruction (Count)
system.cpu.commit.committedInstType_0::SimdFloatMultAcc            0      0.00%     80.96% # Class of committed instruction (Count)
system.cpu.commit.committedInstType_0::SimdFloatSqrt            0      0.00%     80.96% # Class of committed instruction (Count)
system.cpu.commit.committedInstType_0::SimdReduceAdd            0      0.00%     80.96% # Class of committed instruction (Count)
system.cpu.commit.committedInstType_0::SimdReduceAlu            0      0.00%     80.96% # Class of committed instruction (Count)
system.cpu.commit.committedInstType_0::SimdReduceCmp            0      0.00%     80.96% # Class of committed instruction (Count)
system.cpu.commit.committedInstType_0::SimdFloatReduceAdd            0      0.00%     80.96% # Class of committed instruction (Count)
system.cpu.commit.committedInstType_0::SimdFloatReduceCmp            0      0.00%     80.96% # Class of committed instruction (Count)
system.cpu.commit.committedInstType_0::SimdAes            0      0.00%     80.96% # Class of committed instruction (Count)
system.cpu.commit.committedInstType_0::SimdAesMix            0      0.00%     80.96% # Class of committed instruction (Count)
system.cpu.commit.committedInstType_0::SimdSha1Hash            0      0.00%     80.96% # Class of committed instruction (Count)
system.cpu.commit.committedInstType_0::SimdSha1Hash2            0      0.00%     80.96% # Class of committed instruction (Count)
system.cpu.commit.committedInstType_0::SimdSha256Hash            0      0.00%     80.96% # Class of committed instruction (Count)
system.cpu.commit.committedInstType_0::SimdSha256Hash2            0      0.00%     80.96% # Class of committed instruction (Count)
system.cpu.commit.committedInstType_0::SimdShaSigma2            0      0.00%     80.96% # Class of committed instruction (Count)
system.cpu.commit.committedInstType_0::SimdShaSigma3            0      0.00%     80.96% # Class of committed instruction (Count)
system.cpu.commit.committedInstType_0::SimdPredAlu            0      0.00%     80.96% # Class of committed instruction (Count)
system.cpu.commit.committedInstType_0::MemRead         1437      0.01%     80.97% # Class of committed instruction (Count)
system.cpu.commit.committedInstType_0::MemWrite         1133      0.01%     80.98% # Class of committed instruction (Count)
system.cpu.commit.committedInstType_0::FloatMemRead      2621486     18.12%     99.09% # Class of committed instruction (Count)
system.cpu.commit.committedInstType_0::FloatMemWrite       131530      0.91%    100.00% # Class of committed instruction (Count)
system.cpu.commit.committedInstType_0::IprAccess            0      0.00%    100.00% # Class of committed instruction (Count)
system.cpu.commit.committedInstType_0::InstPrefetch            0      0.00%    100.00% # Class of committed instruction (Count)
system.cpu.commit.committedInstType_0::total     14470625                       # Class of committed instruction (Count)
system.cpu.commit.commitEligibleSamples        844962                       # number cycles where commit BW limit reached (Cycle)
system.cpu.dcache.demandHits::cpu.data        2745506                       # number of demand (read+write) hits (Count)
system.cpu.dcache.demandHits::total           2745506                       # number of demand (read+write) hits (Count)
system.cpu.dcache.overallHits::cpu.data       2745506                       # number of overall hits (Count)
system.cpu.dcache.overallHits::total          2745506                       # number of overall hits (Count)
system.cpu.dcache.demandMisses::cpu.data       142566                       # number of demand (read+write) misses (Count)
system.cpu.dcache.demandMisses::total          142566                       # number of demand (read+write) misses (Count)
system.cpu.dcache.overallMisses::cpu.data       142566                       # number of overall misses (Count)
system.cpu.dcache.overallMisses::total         142566                       # number of overall misses (Count)
system.cpu.dcache.demandMissLatency::cpu.data   7020224998                       # number of demand (read+write) miss ticks (Tick)
system.cpu.dcache.demandMissLatency::total   7020224998                       # number of demand (read+write) miss ticks (Tick)
system.cpu.dcache.overallMissLatency::cpu.data   7020224998                       # number of overall miss ticks (Tick)
system.cpu.dcache.overallMissLatency::total   7020224998                       # number of overall miss ticks (Tick)
system.cpu.dcache.demandAccesses::cpu.data      2888072                       # number of demand (read+write) accesses (Count)
system.cpu.dcache.demandAccesses::total       2888072                       # number of demand (read+write) accesses (Count)
system.cpu.dcache.overallAccesses::cpu.data      2888072                       # number of overall (read+write) accesses (Count)
system.cpu.dcache.overallAccesses::total      2888072                       # number of overall (read+write) accesses (Count)
system.cpu.dcache.demandMissRate::cpu.data     0.049364                       # miss rate for demand accesses (Ratio)
system.cpu.dcache.demandMissRate::total      0.049364                       # miss rate for demand accesses (Ratio)
system.cpu.dcache.overallMissRate::cpu.data     0.049364                       # miss rate for overall accesses (Ratio)
system.cpu.dcache.overallMissRate::total     0.049364                       # miss rate for overall accesses (Ratio)
system.cpu.dcache.demandAvgMissLatency::cpu.data 49241.930039                       # average overall miss latency ((Cycle/Count))
system.cpu.dcache.demandAvgMissLatency::total 49241.930039                       # average overall miss latency ((Cycle/Count))
system.cpu.dcache.overallAvgMissLatency::cpu.data 49241.930039                       # average overall miss latency ((Cycle/Count))
system.cpu.dcache.overallAvgMissLatency::total 49241.930039                       # average overall miss latency ((Cycle/Count))
system.cpu.dcache.blockedCycles::no_mshrs        35914                       # number of cycles access was blocked (Cycle)
system.cpu.dcache.blockedCycles::no_targets            0                       # number of cycles access was blocked (Cycle)
system.cpu.dcache.blockedCauses::no_mshrs         1897                       # number of times access was blocked (Count)
system.cpu.dcache.blockedCauses::no_targets            0                       # number of times access was blocked (Count)
system.cpu.dcache.avgBlocked::no_mshrs      18.931998                       # average number of cycles each access was blocked ((Cycle/Count))
system.cpu.dcache.avgBlocked::no_targets          nan                       # average number of cycles each access was blocked ((Cycle/Count))
system.cpu.dcache.writebacks::writebacks        12154                       # number of writebacks (Count)
system.cpu.dcache.writebacks::total             12154                       # number of writebacks (Count)
system.cpu.dcache.demandMshrHits::cpu.data       119095                       # number of demand (read+write) MSHR hits (Count)
system.cpu.dcache.demandMshrHits::total        119095                       # number of demand (read+write) MSHR hits (Count)
system.cpu.dcache.overallMshrHits::cpu.data       119095                       # number of overall MSHR hits (Count)
system.cpu.dcache.overallMshrHits::total       119095                       # number of overall MSHR hits (Count)
system.cpu.dcache.demandMshrMisses::cpu.data        23471                       # number of demand (read+write) MSHR misses (Count)
system.cpu.dcache.demandMshrMisses::total        23471                       # number of demand (read+write) MSHR misses (Count)
system.cpu.dcache.overallMshrMisses::cpu.data        23471                       # number of overall MSHR misses (Count)
system.cpu.dcache.overallMshrMisses::total        23471                       # number of overall MSHR misses (Count)
system.cpu.dcache.demandMshrMissLatency::cpu.data   1233293998                       # number of demand (read+write) MSHR miss ticks (Tick)
system.cpu.dcache.demandMshrMissLatency::total   1233293998                       # number of demand (read+write) MSHR miss ticks (Tick)
system.cpu.dcache.overallMshrMissLatency::cpu.data   1233293998                       # number of overall MSHR miss ticks (Tick)
system.cpu.dcache.overallMshrMissLatency::total   1233293998                       # number of overall MSHR miss ticks (Tick)
system.cpu.dcache.demandMshrMissRate::cpu.data     0.008127                       # mshr miss ratio for demand accesses (Ratio)
system.cpu.dcache.demandMshrMissRate::total     0.008127                       # mshr miss ratio for demand accesses (Ratio)
system.cpu.dcache.overallMshrMissRate::cpu.data     0.008127                       # mshr miss ratio for overall accesses (Ratio)
system.cpu.dcache.overallMshrMissRate::total     0.008127                       # mshr miss ratio for overall accesses (Ratio)
system.cpu.dcache.demandAvgMshrMissLatency::cpu.data 52545.438967                       # average overall mshr miss latency ((Cycle/Count))
system.cpu.dcache.demandAvgMshrMissLatency::total 52545.438967                       # average overall mshr miss latency ((Cycle/Count))
system.cpu.dcache.overallAvgMshrMissLatency::cpu.data 52545.438967                       # average overall mshr miss latency ((Cycle/Count))
system.cpu.dcache.overallAvgMshrMissLatency::total 52545.438967                       # average overall mshr miss latency ((Cycle/Count))
system.cpu.dcache.replacements                  22447                       # number of replacements (Count)
system.cpu.dcache.ReadReq.hits::cpu.data      2613361                       # number of ReadReq hits (Count)
system.cpu.dcache.ReadReq.hits::total         2613361                       # number of ReadReq hits (Count)
system.cpu.dcache.ReadReq.misses::cpu.data       142047                       # number of ReadReq misses (Count)
system.cpu.dcache.ReadReq.misses::total        142047                       # number of ReadReq misses (Count)
system.cpu.dcache.ReadReq.missLatency::cpu.data   6987127000                       # number of ReadReq miss ticks (Tick)
system.cpu.dcache.ReadReq.missLatency::total   6987127000                       # number of ReadReq miss ticks (Tick)
system.cpu.dcache.ReadReq.accesses::cpu.data      2755408                       # number of ReadReq accesses(hits+misses) (Count)
system.cpu.dcache.ReadReq.accesses::total      2755408                       # number of ReadReq accesses(hits+misses) (Count)
system.cpu.dcache.ReadReq.missRate::cpu.data     0.051552                       # miss rate for ReadReq accesses (Ratio)
system.cpu.dcache.ReadReq.missRate::total     0.051552                       # miss rate for ReadReq accesses (Ratio)
system.cpu.dcache.ReadReq.avgMissLatency::cpu.data 49188.838905                       # average ReadReq miss latency ((Tick/Count))
system.cpu.dcache.ReadReq.avgMissLatency::total 49188.838905                       # average ReadReq miss latency ((Tick/Count))
system.cpu.dcache.ReadReq.mshrHits::cpu.data       119093                       # number of ReadReq MSHR hits (Count)
system.cpu.dcache.ReadReq.mshrHits::total       119093                       # number of ReadReq MSHR hits (Count)
system.cpu.dcache.ReadReq.mshrMisses::cpu.data        22954                       # number of ReadReq MSHR misses (Count)
system.cpu.dcache.ReadReq.mshrMisses::total        22954                       # number of ReadReq MSHR misses (Count)
system.cpu.dcache.ReadReq.mshrMissLatency::cpu.data   1201344000                       # number of ReadReq MSHR miss ticks (Tick)
system.cpu.dcache.ReadReq.mshrMissLatency::total   1201344000                       # number of ReadReq MSHR miss ticks (Tick)
system.cpu.dcache.ReadReq.mshrMissRate::cpu.data     0.008331                       # mshr miss rate for ReadReq accesses (Ratio)
system.cpu.dcache.ReadReq.mshrMissRate::total     0.008331                       # mshr miss rate for ReadReq accesses (Ratio)
system.cpu.dcache.ReadReq.avgMshrMissLatency::cpu.data 52337.021870                       # average ReadReq mshr miss latency ((Tick/Count))
system.cpu.dcache.ReadReq.avgMshrMissLatency::total 52337.021870                       # average ReadReq mshr miss latency ((Tick/Count))
system.cpu.dcache.WriteReq.hits::cpu.data       132145                       # number of WriteReq hits (Count)
system.cpu.dcache.WriteReq.hits::total         132145                       # number of WriteReq hits (Count)
system.cpu.dcache.WriteReq.misses::cpu.data          519                       # number of WriteReq misses (Count)
system.cpu.dcache.WriteReq.misses::total          519                       # number of WriteReq misses (Count)
system.cpu.dcache.WriteReq.missLatency::cpu.data     33097998                       # number of WriteReq miss ticks (Tick)
system.cpu.dcache.WriteReq.missLatency::total     33097998                       # number of WriteReq miss ticks (Tick)
system.cpu.dcache.WriteReq.accesses::cpu.data       132664                       # number of WriteReq accesses(hits+misses) (Count)
system.cpu.dcache.WriteReq.accesses::total       132664                       # number of WriteReq accesses(hits+misses) (Count)
system.cpu.dcache.WriteReq.missRate::cpu.data     0.003912                       # miss rate for WriteReq accesses (Ratio)
system.cpu.dcache.WriteReq.missRate::total     0.003912                       # miss rate for WriteReq accesses (Ratio)
system.cpu.dcache.WriteReq.avgMissLatency::cpu.data 63772.635838                       # average WriteReq miss latency ((Tick/Count))
system.cpu.dcache.WriteReq.avgMissLatency::total 63772.635838                       # average WriteReq miss latency ((Tick/Count))
system.cpu.dcache.WriteReq.mshrHits::cpu.data            2                       # number of WriteReq MSHR hits (Count)
system.cpu.dcache.WriteReq.mshrHits::total            2                       # number of WriteReq MSHR hits (Count)
system.cpu.dcache.WriteReq.mshrMisses::cpu.data          517                       # number of WriteReq MSHR misses (Count)
system.cpu.dcache.WriteReq.mshrMisses::total          517                       # number of WriteReq MSHR misses (Count)
system.cpu.dcache.WriteReq.mshrMissLatency::cpu.data     31949998                       # number of WriteReq MSHR miss ticks (Tick)
system.cpu.dcache.WriteReq.mshrMissLatency::total     31949998                       # number of WriteReq MSHR miss ticks (Tick)
system.cpu.dcache.WriteReq.mshrMissRate::cpu.data     0.003897                       # mshr miss rate for WriteReq accesses (Ratio)
system.cpu.dcache.WriteReq.mshrMissRate::total     0.003897                       # mshr miss rate for WriteReq accesses (Ratio)
system.cpu.dcache.WriteReq.avgMshrMissLatency::cpu.data 61798.835590                       # average WriteReq mshr miss latency ((Tick/Count))
system.cpu.dcache.WriteReq.avgMshrMissLatency::total 61798.835590                       # average WriteReq mshr miss latency ((Tick/Count))
system.cpu.dcache.power_state.pwrStateResidencyTicks::UNDEFINED   3970411000                       # Cumulative time (in ticks) in various power states (Tick)
system.cpu.dcache.tags.tagsInUse           992.859666                       # Average ticks per tags in use ((Tick/Count))
system.cpu.dcache.tags.totalRefs              2768977                       # Total number of references to valid blocks. (Count)
system.cpu.dcache.tags.sampledRefs              23471                       # Sample count of references to valid blocks. (Count)
system.cpu.dcache.tags.avgRefs             117.974394                       # Average number of references to valid blocks. ((Count/Count))
system.cpu.dcache.tags.warmupTick              150000                       # The tick when the warmup percentage was hit. (Tick)
system.cpu.dcache.tags.occupancies::cpu.data   992.859666                       # Average occupied blocks per tick, per requestor ((Count/Tick))
system.cpu.dcache.tags.avgOccs::cpu.data     0.969590                       # Average percentage of cache occupancy ((Ratio/Tick))
system.cpu.dcache.tags.avgOccs::total        0.969590                       # Average percentage of cache occupancy ((Ratio/Tick))
system.cpu.dcache.tags.occupanciesTaskId::1024         1024                       # Occupied blocks per task id (Count)
system.cpu.dcache.tags.ageTaskId_1024::0          132                       # Occupied blocks per task id, per block age (Count)
system.cpu.dcache.tags.ageTaskId_1024::1           72                       # Occupied blocks per task id, per block age (Count)
system.cpu.dcache.tags.ageTaskId_1024::2          325                       # Occupied blocks per task id, per block age (Count)
system.cpu.dcache.tags.ageTaskId_1024::3          495                       # Occupied blocks per task id, per block age (Count)
system.cpu.dcache.tags.ratioOccsTaskId::1024            1                       # Ratio of occupied blocks and all blocks, per task id (Ratio)
system.cpu.dcache.tags.tagAccesses            5799615                       # Number of tag accesses (Count)
system.cpu.dcache.tags.dataAccesses           5799615                       # Number of data accesses (Count)
system.cpu.dcache.tags.power_state.pwrStateResidencyTicks::UNDEFINED   3970411000                       # Cumulative time (in ticks) in various power states (Tick)
system.cpu.decode.idleCycles                  1525365                       # Number of cycles decode is idle (Cycle)
system.cpu.decode.blockedCycles                364968                       # Number of cycles decode is blocked (Cycle)
system.cpu.decode.runCycles                   2045427                       # Number of cycles decode is running (Cycle)
system.cpu.decode.unblockCycles                 24379                       # Number of cycles decode is unblocking (Cycle)
system.cpu.decode.squashCycles                    846                       # Number of cycles decode is squashing (Cycle)
system.cpu.decode.branchResolved               263649                       # Number of times decode resolved a branch (Count)
system.cpu.decode.branchMispred                   227                       # Number of times decode detected a branch misprediction (Count)
system.cpu.decode.decodedInsts               14497963                       # Number of instructions handled by decode (Count)
system.cpu.decode.squashedInsts                  1045                       # Number of squashed instructions handled by decode (Count)
system.cpu.dtb_walker_cache.blockedCycles::no_mshrs            0                       # number of cycles access was blocked (Cycle)
system.cpu.dtb_walker_cache.blockedCycles::no_targets            0                       # number of cycles access was blocked (Cycle)
system.cpu.dtb_walker_cache.blockedCauses::no_mshrs            0                       # number of times access was blocked (Count)
system.cpu.dtb_walker_cache.blockedCauses::no_targets            0                       # number of times access was blocked (Count)
system.cpu.dtb_walker_cache.avgBlocked::no_mshrs          nan                       # average number of cycles each access was blocked ((Cycle/Count))
system.cpu.dtb_walker_cache.avgBlocked::no_targets          nan                       # average number of cycles each access was blocked ((Cycle/Count))
system.cpu.dtb_walker_cache.replacements            0                       # number of replacements (Count)
system.cpu.dtb_walker_cache.power_state.pwrStateResidencyTicks::UNDEFINED   3970411000                       # Cumulative time (in ticks) in various power states (Tick)
system.cpu.dtb_walker_cache.tags.tagsInUse            0                       # Average ticks per tags in use ((Tick/Count))
system.cpu.dtb_walker_cache.tags.totalRefs            0                       # Total number of references to valid blocks. (Count)
system.cpu.dtb_walker_cache.tags.sampledRefs            0                       # Sample count of references to valid blocks. (Count)
system.cpu.dtb_walker_cache.tags.avgRefs          nan                       # Average number of references to valid blocks. ((Count/Count))
system.cpu.dtb_walker_cache.tags.warmupTick            0                       # The tick when the warmup percentage was hit. (Tick)
system.cpu.dtb_walker_cache.tags.tagAccesses            0                       # Number of tag accesses (Count)
system.cpu.dtb_walker_cache.tags.dataAccesses            0                       # Number of data accesses (Count)
system.cpu.dtb_walker_cache.tags.power_state.pwrStateResidencyTicks::UNDEFINED   3970411000                       # Cumulative time (in ticks) in various power states (Tick)
system.cpu.fetch.icacheStallCycles            1095349                       # Number of cycles fetch is stalled on an Icache miss (Cycle)
system.cpu.fetch.insts                        8119733                       # Number of instructions fetch has processed (Count)
system.cpu.fetch.branches                      299248                       # Number of branches that fetch encountered (Count)
system.cpu.fetch.predictedBranches             263808                       # Number of branches that fetch has predicted taken (Count)
system.cpu.fetch.cycles                       2864008                       # Number of cycles fetch has run and was not squashing or blocked (Cycle)
system.cpu.fetch.squashCycles                    2118                       # Number of cycles fetch has spent squashing (Cycle)
system.cpu.fetch.miscStallCycles                   84                       # Number of cycles fetch has spent waiting on interrupts, or bad addresses, or out of MSHRs (Cycle)
system.cpu.fetch.pendingTrapStallCycles           475                       # Number of stall cycles due to pending traps (Cycle)
system.cpu.fetch.pendingQuiesceStallCycles            2                       # Number of stall cycles due to pending quiesce instructions (Cycle)
system.cpu.fetch.icacheWaitRetryStallCycles            8                       # Number of stall cycles due to full MSHR (Cycle)
system.cpu.fetch.cacheLines                   1085017                       # Number of cache lines fetched (Count)
system.cpu.fetch.icacheSquashes                   366                       # Number of outstanding Icache misses that were squashed (Count)
system.cpu.fetch.nisnDist::samples            3960985                       # Number of instructions fetched each cycle (Total) (Count)
system.cpu.fetch.nisnDist::mean              3.661240                       # Number of instructions fetched each cycle (Total) (Count)
system.cpu.fetch.nisnDist::stdev             3.891312                       # Number of instructions fetched each cycle (Total) (Count)
system.cpu.fetch.nisnDist::underflows               0      0.00%      0.00% # Number of instructions fetched each cycle (Total) (Count)
system.cpu.fetch.nisnDist::0                  1877249     47.39%     47.39% # Number of instructions fetched each cycle (Total) (Count)
system.cpu.fetch.nisnDist::1                   272158      6.87%     54.26% # Number of instructions fetched each cycle (Total) (Count)
system.cpu.fetch.nisnDist::2                     1200      0.03%     54.29% # Number of instructions fetched each cycle (Total) (Count)
system.cpu.fetch.nisnDist::3                    33786      0.85%     55.15% # Number of instructions fetched each cycle (Total) (Count)
system.cpu.fetch.nisnDist::4                     1322      0.03%     55.18% # Number of instructions fetched each cycle (Total) (Count)
system.cpu.fetch.nisnDist::5                     1079      0.03%     55.21% # Number of instructions fetched each cycle (Total) (Count)
system.cpu.fetch.nisnDist::6                    33472      0.85%     56.05% # Number of instructions fetched each cycle (Total) (Count)
system.cpu.fetch.nisnDist::7                    11066      0.28%     56.33% # Number of instructions fetched each cycle (Total) (Count)
system.cpu.fetch.nisnDist::8                  1729653     43.67%    100.00% # Number of instructions fetched each cycle (Total) (Count)
system.cpu.fetch.nisnDist::overflows                0      0.00%    100.00% # Number of instructions fetched each cycle (Total) (Count)
system.cpu.fetch.nisnDist::min_value                0                       # Number of instructions fetched each cycle (Total) (Count)
system.cpu.fetch.nisnDist::max_value                8                       # Number of instructions fetched each cycle (Total) (Count)
system.cpu.fetch.nisnDist::total              3960985                       # Number of instructions fetched each cycle (Total) (Count)
system.cpu.fetch.branchRate                  0.075370                       # Number of branch fetches per cycle (Ratio)
system.cpu.fetch.rate                        2.045061                       # Number of inst fetches per cycle ((Count/Cycle))
system.cpu.icache.demandHits::cpu.inst        1084435                       # number of demand (read+write) hits (Count)
system.cpu.icache.demandHits::total           1084435                       # number of demand (read+write) hits (Count)
system.cpu.icache.overallHits::cpu.inst       1084435                       # number of overall hits (Count)
system.cpu.icache.overallHits::total          1084435                       # number of overall hits (Count)
system.cpu.icache.demandMisses::cpu.inst          582                       # number of demand (read+write) misses (Count)
system.cpu.icache.demandMisses::total             582                       # number of demand (read+write) misses (Count)
system.cpu.icache.overallMisses::cpu.inst          582                       # number of overall misses (Count)
system.cpu.icache.overallMisses::total            582                       # number of overall misses (Count)
system.cpu.icache.demandMissLatency::cpu.inst     32111000                       # number of demand (read+write) miss ticks (Tick)
system.cpu.icache.demandMissLatency::total     32111000                       # number of demand (read+write) miss ticks (Tick)
system.cpu.icache.overallMissLatency::cpu.inst     32111000                       # number of overall miss ticks (Tick)
system.cpu.icache.overallMissLatency::total     32111000                       # number of overall miss ticks (Tick)
system.cpu.icache.demandAccesses::cpu.inst      1085017                       # number of demand (read+write) accesses (Count)
system.cpu.icache.demandAccesses::total       1085017                       # number of demand (read+write) accesses (Count)
system.cpu.icache.overallAccesses::cpu.inst      1085017                       # number of overall (read+write) accesses (Count)
system.cpu.icache.overallAccesses::total      1085017                       # number of overall (read+write) accesses (Count)
system.cpu.icache.demandMissRate::cpu.inst     0.000536                       # miss rate for demand accesses (Ratio)
system.cpu.icache.demandMissRate::total      0.000536                       # miss rate for demand accesses (Ratio)
system.cpu.icache.overallMissRate::cpu.inst     0.000536                       # miss rate for overall accesses (Ratio)
system.cpu.icache.overallMissRate::total     0.000536                       # miss rate for overall accesses (Ratio)
system.cpu.icache.demandAvgMissLatency::cpu.inst 55173.539519                       # average overall miss latency ((Cycle/Count))
system.cpu.icache.demandAvgMissLatency::total 55173.539519                       # average overall miss latency ((Cycle/Count))
system.cpu.icache.overallAvgMissLatency::cpu.inst 55173.539519                       # average overall miss latency ((Cycle/Count))
system.cpu.icache.overallAvgMissLatency::total 55173.539519                       # average overall miss latency ((Cycle/Count))
system.cpu.icache.blockedCycles::no_mshrs           50                       # number of cycles access was blocked (Cycle)
system.cpu.icache.blockedCycles::no_targets            0                       # number of cycles access was blocked (Cycle)
system.cpu.icache.blockedCauses::no_mshrs            2                       # number of times access was blocked (Count)
system.cpu.icache.blockedCauses::no_targets            0                       # number of times access was blocked (Count)
system.cpu.icache.avgBlocked::no_mshrs             25                       # average number of cycles each access was blocked ((Cycle/Count))
system.cpu.icache.avgBlocked::no_targets          nan                       # average number of cycles each access was blocked ((Cycle/Count))
system.cpu.icache.writebacks::writebacks           20                       # number of writebacks (Count)
system.cpu.icache.writebacks::total                20                       # number of writebacks (Count)
system.cpu.icache.demandMshrHits::cpu.inst          121                       # number of demand (read+write) MSHR hits (Count)
system.cpu.icache.demandMshrHits::total           121                       # number of demand (read+write) MSHR hits (Count)
system.cpu.icache.overallMshrHits::cpu.inst          121                       # number of overall MSHR hits (Count)
system.cpu.icache.overallMshrHits::total          121                       # number of overall MSHR hits (Count)
system.cpu.icache.demandMshrMisses::cpu.inst          461                       # number of demand (read+write) MSHR misses (Count)
system.cpu.icache.demandMshrMisses::total          461                       # number of demand (read+write) MSHR misses (Count)
system.cpu.icache.overallMshrMisses::cpu.inst          461                       # number of overall MSHR misses (Count)
system.cpu.icache.overallMshrMisses::total          461                       # number of overall MSHR misses (Count)
system.cpu.icache.demandMshrMissLatency::cpu.inst     27019000                       # number of demand (read+write) MSHR miss ticks (Tick)
system.cpu.icache.demandMshrMissLatency::total     27019000                       # number of demand (read+write) MSHR miss ticks (Tick)
system.cpu.icache.overallMshrMissLatency::cpu.inst     27019000                       # number of overall MSHR miss ticks (Tick)
system.cpu.icache.overallMshrMissLatency::total     27019000                       # number of overall MSHR miss ticks (Tick)
system.cpu.icache.demandMshrMissRate::cpu.inst     0.000425                       # mshr miss ratio for demand accesses (Ratio)
system.cpu.icache.demandMshrMissRate::total     0.000425                       # mshr miss ratio for demand accesses (Ratio)
system.cpu.icache.overallMshrMissRate::cpu.inst     0.000425                       # mshr miss ratio for overall accesses (Ratio)
system.cpu.icache.overallMshrMissRate::total     0.000425                       # mshr miss ratio for overall accesses (Ratio)
system.cpu.icache.demandAvgMshrMissLatency::cpu.inst 58609.544469                       # average overall mshr miss latency ((Cycle/Count))
system.cpu.icache.demandAvgMshrMissLatency::total 58609.544469                       # average overall mshr miss latency ((Cycle/Count))
system.cpu.icache.overallAvgMshrMissLatency::cpu.inst 58609.544469                       # average overall mshr miss latency ((Cycle/Count))
system.cpu.icache.overallAvgMshrMissLatency::total 58609.544469                       # average overall mshr miss latency ((Cycle/Count))
system.cpu.icache.replacements                     20                       # number of replacements (Count)
system.cpu.icache.ReadReq.hits::cpu.inst      1084435                       # number of ReadReq hits (Count)
system.cpu.icache.ReadReq.hits::total         1084435                       # number of ReadReq hits (Count)
system.cpu.icache.ReadReq.misses::cpu.inst          582                       # number of ReadReq misses (Count)
system.cpu.icache.ReadReq.misses::total           582                       # number of ReadReq misses (Count)
system.cpu.icache.ReadReq.missLatency::cpu.inst     32111000                       # number of ReadReq miss ticks (Tick)
system.cpu.icache.ReadReq.missLatency::total     32111000                       # number of ReadReq miss ticks (Tick)
system.cpu.icache.ReadReq.accesses::cpu.inst      1085017                       # number of ReadReq accesses(hits+misses) (Count)
system.cpu.icache.ReadReq.accesses::total      1085017                       # number of ReadReq accesses(hits+misses) (Count)
system.cpu.icache.ReadReq.missRate::cpu.inst     0.000536                       # miss rate for ReadReq accesses (Ratio)
system.cpu.icache.ReadReq.missRate::total     0.000536                       # miss rate for ReadReq accesses (Ratio)
system.cpu.icache.ReadReq.avgMissLatency::cpu.inst 55173.539519                       # average ReadReq miss latency ((Tick/Count))
system.cpu.icache.ReadReq.avgMissLatency::total 55173.539519                       # average ReadReq miss latency ((Tick/Count))
system.cpu.icache.ReadReq.mshrHits::cpu.inst          121                       # number of ReadReq MSHR hits (Count)
system.cpu.icache.ReadReq.mshrHits::total          121                       # number of ReadReq MSHR hits (Count)
system.cpu.icache.ReadReq.mshrMisses::cpu.inst          461                       # number of ReadReq MSHR misses (Count)
system.cpu.icache.ReadReq.mshrMisses::total          461                       # number of ReadReq MSHR misses (Count)
system.cpu.icache.ReadReq.mshrMissLatency::cpu.inst     27019000                       # number of ReadReq MSHR miss ticks (Tick)
system.cpu.icache.ReadReq.mshrMissLatency::total     27019000                       # number of ReadReq MSHR miss ticks (Tick)
system.cpu.icache.ReadReq.mshrMissRate::cpu.inst     0.000425                       # mshr miss rate for ReadReq accesses (Ratio)
system.cpu.icache.ReadReq.mshrMissRate::total     0.000425                       # mshr miss rate for ReadReq accesses (Ratio)
system.cpu.icache.ReadReq.avgMshrMissLatency::cpu.inst 58609.544469                       # average ReadReq mshr miss latency ((Tick/Count))
system.cpu.icache.ReadReq.avgMshrMissLatency::total 58609.544469                       # average ReadReq mshr miss latency ((Tick/Count))
system.cpu.icache.power_state.pwrStateResidencyTicks::UNDEFINED   3970411000                       # Cumulative time (in ticks) in various power states (Tick)
system.cpu.icache.tags.tagsInUse           404.799952                       # Average ticks per tags in use ((Tick/Count))
system.cpu.icache.tags.totalRefs              1084895                       # Total number of references to valid blocks. (Count)
system.cpu.icache.tags.sampledRefs                460                       # Sample count of references to valid blocks. (Count)
system.cpu.icache.tags.avgRefs            2358.467391                       # Average number of references to valid blocks. ((Count/Count))
system.cpu.icache.tags.warmupTick               77000                       # The tick when the warmup percentage was hit. (Tick)
system.cpu.icache.tags.occupancies::cpu.inst   404.799952                       # Average occupied blocks per tick, per requestor ((Count/Tick))
system.cpu.icache.tags.avgOccs::cpu.inst     0.395312                       # Average percentage of cache occupancy ((Ratio/Tick))
system.cpu.icache.tags.avgOccs::total        0.395312                       # Average percentage of cache occupancy ((Ratio/Tick))
system.cpu.icache.tags.occupanciesTaskId::1024          440                       # Occupied blocks per task id (Count)
system.cpu.icache.tags.ageTaskId_1024::0           37                       # Occupied blocks per task id, per block age (Count)
system.cpu.icache.tags.ageTaskId_1024::3          403                       # Occupied blocks per task id, per block age (Count)
system.cpu.icache.tags.ratioOccsTaskId::1024     0.429688                       # Ratio of occupied blocks and all blocks, per task id (Ratio)
system.cpu.icache.tags.tagAccesses            2170494                       # Number of tag accesses (Count)
system.cpu.icache.tags.dataAccesses           2170494                       # Number of data accesses (Count)
system.cpu.icache.tags.power_state.pwrStateResidencyTicks::UNDEFINED   3970411000                       # Cumulative time (in ticks) in various power states (Tick)
system.cpu.iew.idleCycles                           0                       # Number of cycles IEW is idle (Cycle)
system.cpu.iew.squashCycles                       846                       # Number of cycles IEW is squashing (Cycle)
system.cpu.iew.blockCycles                      31846                       # Number of cycles IEW is blocking (Cycle)
system.cpu.iew.unblockCycles                   103608                       # Number of cycles IEW is unblocking (Cycle)
system.cpu.iew.dispatchedInsts               14488426                       # Number of instructions dispatched to IQ (Count)
system.cpu.iew.dispSquashedInsts                  104                       # Number of squashed instructions skipped by dispatch (Count)
system.cpu.iew.dispLoadInsts                  2625628                       # Number of dispatched load instructions (Count)
system.cpu.iew.dispStoreInsts                  133750                       # Number of dispatched store instructions (Count)
system.cpu.iew.dispNonSpecInsts                     4                       # Number of dispatched non-speculative instructions (Count)
system.cpu.iew.iqFullEvents                      1075                       # Number of times the IQ has become full, causing a stall (Count)
system.cpu.iew.lsqFullEvents                   101806                       # Number of times the LSQ has become full, causing a stall (Count)
system.cpu.iew.memOrderViolationEvents             18                       # Number of memory order violations (Count)
system.cpu.iew.predictedTakenIncorrect            323                       # Number of branches that were predicted taken incorrectly (Count)
system.cpu.iew.predictedNotTakenIncorrect          619                       # Number of branches that were predicted not taken incorrectly (Count)
system.cpu.iew.branchMispredicts                  942                       # Number of branch mispredicts detected at execute (Count)
system.cpu.iew.instsToCommit                 14480992                       # Cumulative count of insts sent to commit (Count)
system.cpu.iew.writebackCount                14480631                       # Cumulative count of insts written-back (Count)
system.cpu.iew.producerInst                   6736441                       # Number of instructions producing a value (Count)
system.cpu.iew.consumerInst                   9918945                       # Number of instructions consuming a value (Count)
system.cpu.iew.wbRate                        3.647136                       # Insts written-back per cycle ((Count/Cycle))
system.cpu.iew.wbFanout                      0.679149                       # Average fanout of values written-back ((Count/Count))
system.cpu.interrupts.clk_domain.clock          16000                       # Clock period in ticks (Tick)
system.cpu.itb_walker_cache.blockedCycles::no_mshrs            0                       # number of cycles access was blocked (Cycle)
system.cpu.itb_walker_cache.blockedCycles::no_targets            0                       # number of cycles access was blocked (Cycle)
system.cpu.itb_walker_cache.blockedCauses::no_mshrs            0                       # number of times access was blocked (Count)
system.cpu.itb_walker_cache.blockedCauses::no_targets            0                       # number of times access was blocked (Count)
system.cpu.itb_walker_cache.avgBlocked::no_mshrs          nan                       # average number of cycles each access was blocked ((Cycle/Count))
system.cpu.itb_walker_cache.avgBlocked::no_targets          nan                       # average number of cycles each access was blocked ((Cycle/Count))
system.cpu.itb_walker_cache.replacements            0                       # number of replacements (Count)
system.cpu.itb_walker_cache.power_state.pwrStateResidencyTicks::UNDEFINED   3970411000                       # Cumulative time (in ticks) in various power states (Tick)
system.cpu.itb_walker_cache.tags.tagsInUse            0                       # Average ticks per tags in use ((Tick/Count))
system.cpu.itb_walker_cache.tags.totalRefs            0                       # Total number of references to valid blocks. (Count)
system.cpu.itb_walker_cache.tags.sampledRefs            0                       # Sample count of references to valid blocks. (Count)
system.cpu.itb_walker_cache.tags.avgRefs          nan                       # Average number of references to valid blocks. ((Count/Count))
system.cpu.itb_walker_cache.tags.warmupTick            0                       # The tick when the warmup percentage was hit. (Tick)
system.cpu.itb_walker_cache.tags.tagAccesses            0                       # Number of tag accesses (Count)
system.cpu.itb_walker_cache.tags.dataAccesses            0                       # Number of data accesses (Count)
system.cpu.itb_walker_cache.tags.power_state.pwrStateResidencyTicks::UNDEFINED   3970411000                       # Cumulative time (in ticks) in various power states (Tick)
system.cpu.lsq0.forwLoads                         184                       # Number of loads that had data forwarded from stores (Count)
system.cpu.lsq0.squashedLoads                    2705                       # Number of loads squashed (Count)
system.cpu.lsq0.ignoredResponses                    3                       # Number of memory responses ignored because the instruction is squashed (Count)
system.cpu.lsq0.memOrderViolation                  18                       # Number of memory ordering violations (Count)
system.cpu.lsq0.squashedStores                   1087                       # Number of stores squashed (Count)
system.cpu.lsq0.rescheduledLoads                    0                       # Number of loads that were rescheduled (Count)
system.cpu.lsq0.blockedByCache                   1802                       # Number of times an access to memory failed due to the cache being blocked (Count)
system.cpu.lsq0.loadToUse::samples            2622923                       # Distribution of cycle latency between the first time a load is issued and its completion (Unspecified)
system.cpu.lsq0.loadToUse::mean              5.942717                       # Distribution of cycle latency between the first time a load is issued and its completion (Unspecified)
system.cpu.lsq0.loadToUse::stdev            13.580987                       # Distribution of cycle latency between the first time a load is issued and its completion (Unspecified)
system.cpu.lsq0.loadToUse::0-9                2481784     94.62%     94.62% # Distribution of cycle latency between the first time a load is issued and its completion (Unspecified)
system.cpu.lsq0.loadToUse::10-19                  646      0.02%     94.64% # Distribution of cycle latency between the first time a load is issued and its completion (Unspecified)
system.cpu.lsq0.loadToUse::20-29                45589      1.74%     96.38% # Distribution of cycle latency between the first time a load is issued and its completion (Unspecified)
system.cpu.lsq0.loadToUse::30-39                 6292      0.24%     96.62% # Distribution of cycle latency between the first time a load is issued and its completion (Unspecified)
system.cpu.lsq0.loadToUse::40-49                 3477      0.13%     96.75% # Distribution of cycle latency between the first time a load is issued and its completion (Unspecified)
system.cpu.lsq0.loadToUse::50-59                62193      2.37%     99.13% # Distribution of cycle latency between the first time a load is issued and its completion (Unspecified)
system.cpu.lsq0.loadToUse::60-69                 5797      0.22%     99.35% # Distribution of cycle latency between the first time a load is issued and its completion (Unspecified)
system.cpu.lsq0.loadToUse::70-79                 6954      0.27%     99.61% # Distribution of cycle latency between the first time a load is issued and its completion (Unspecified)
system.cpu.lsq0.loadToUse::80-89                 3243      0.12%     99.74% # Distribution of cycle latency between the first time a load is issued and its completion (Unspecified)
[...]
system.mem_ctrls.dram.bwWrite::total        195913219                       # Write bandwidth from this memory ((Byte/Second))
system.mem_ctrls.dram.bwTotal::writebacks    195913219                       # Total bandwidth to/from this memory ((Byte/Second))
system.mem_ctrls.dram.bwTotal::cpu.inst       7414849                       # Total bandwidth to/from this memory ((Byte/Second))
system.mem_ctrls.dram.bwTotal::cpu.data     378334636                       # Total bandwidth to/from this memory ((Byte/Second))
system.mem_ctrls.dram.bwTotal::total        581662704                       # Total bandwidth to/from this memory ((Byte/Second))
system.mem_ctrls.dram.readBursts                18515                       # Number of DRAM read bursts (Count)
system.mem_ctrls.dram.writeBursts               10143                       # Number of DRAM write bursts (Count)
system.mem_ctrls.dram.perBankRdBursts::0          881                       # Per bank write bursts (Count)
system.mem_ctrls.dram.perBankRdBursts::1         1563                       # Per bank write bursts (Count)
system.mem_ctrls.dram.perBankRdBursts::2         1337                       # Per bank write bursts (Count)
system.mem_ctrls.dram.perBankRdBursts::3         1318                       # Per bank write bursts (Count)
system.mem_ctrls.dram.perBankRdBursts::4         1304                       # Per bank write bursts (Count)
system.mem_ctrls.dram.perBankRdBursts::5         1341                       # Per bank write bursts (Count)
system.mem_ctrls.dram.perBankRdBursts::6         1391                       # Per bank write bursts (Count)
system.mem_ctrls.dram.perBankRdBursts::7         1344                       # Per bank write bursts (Count)
system.mem_ctrls.dram.perBankRdBursts::8         1308                       # Per bank write bursts (Count)
system.mem_ctrls.dram.perBankRdBursts::9          957                       # Per bank write bursts (Count)
system.mem_ctrls.dram.perBankRdBursts::10          977                       # Per bank write bursts (Count)
system.mem_ctrls.dram.perBankRdBursts::11          989                       # Per bank write bursts (Count)
system.mem_ctrls.dram.perBankRdBursts::12          944                       # Per bank write bursts (Count)
system.mem_ctrls.dram.perBankRdBursts::13          988                       # Per bank write bursts (Count)
system.mem_ctrls.dram.perBankRdBursts::14          886                       # Per bank write bursts (Count)
system.mem_ctrls.dram.perBankRdBursts::15          987                       # Per bank write bursts (Count)
system.mem_ctrls.dram.perBankWrBursts::0         1257                       # Per bank write bursts (Count)
system.mem_ctrls.dram.perBankWrBursts::1          110                       # Per bank write bursts (Count)
system.mem_ctrls.dram.perBankWrBursts::2            2                       # Per bank write bursts (Count)
system.mem_ctrls.dram.perBankWrBursts::3            0                       # Per bank write bursts (Count)
system.mem_ctrls.dram.perBankWrBursts::4            0                       # Per bank write bursts (Count)
system.mem_ctrls.dram.perBankWrBursts::5            0                       # Per bank write bursts (Count)
system.mem_ctrls.dram.perBankWrBursts::6            7                       # Per bank write bursts (Count)
system.mem_ctrls.dram.perBankWrBursts::7            0                       # Per bank write bursts (Count)
system.mem_ctrls.dram.perBankWrBursts::8            0                       # Per bank write bursts (Count)
system.mem_ctrls.dram.perBankWrBursts::9         1133                       # Per bank write bursts (Count)
system.mem_ctrls.dram.perBankWrBursts::10         1243                       # Per bank write bursts (Count)
system.mem_ctrls.dram.perBankWrBursts::11         1308                       # Per bank write bursts (Count)
system.mem_ctrls.dram.perBankWrBursts::12         1190                       # Per bank write bursts (Count)
system.mem_ctrls.dram.perBankWrBursts::13         1337                       # Per bank write bursts (Count)
system.mem_ctrls.dram.perBankWrBursts::14         1277                       # Per bank write bursts (Count)
system.mem_ctrls.dram.perBankWrBursts::15         1279                       # Per bank write bursts (Count)
system.mem_ctrls.dram.totQLat               191621750                       # Total ticks spent queuing (Tick)
system.mem_ctrls.dram.totBusLat              92575000                       # Total ticks spent in databus transfers (Tick)
system.mem_ctrls.dram.totMemAccLat          538778000                       # Total ticks spent from burst creation until serviced by the DRAM (Tick)
system.mem_ctrls.dram.avgQLat                10349.54                       # Average queueing delay per DRAM burst ((Tick/Count))
system.mem_ctrls.dram.avgBusLat               5000.00                       # Average bus latency per DRAM burst ((Tick/Count))
system.mem_ctrls.dram.avgMemAccLat           29099.54                       # Average memory access latency per DRAM burst ((Tick/Count))
system.mem_ctrls.dram.readRowHits               15950                       # Number of row buffer hits during reads (Count)
system.mem_ctrls.dram.writeRowHits               8983                       # Number of row buffer hits during writes (Count)
system.mem_ctrls.dram.readRowHitRate            86.15                       # Row buffer hit rate for reads (Ratio)
system.mem_ctrls.dram.writeRowHitRate           88.56                       # Row buffer hit rate for writes (Ratio)
system.mem_ctrls.dram.bytesPerActivate::samples         3713                       # Bytes accessed per row activation (Byte)
system.mem_ctrls.dram.bytesPerActivate::mean   493.263668                       # Bytes accessed per row activation (Byte)
system.mem_ctrls.dram.bytesPerActivate::gmean   312.187994                       # Bytes accessed per row activation (Byte)
system.mem_ctrls.dram.bytesPerActivate::stdev   382.169163                       # Bytes accessed per row activation (Byte)
system.mem_ctrls.dram.bytesPerActivate::0-127          817     22.00%     22.00% # Bytes accessed per row activation (Byte)
system.mem_ctrls.dram.bytesPerActivate::128-255          593     15.97%     37.97% # Bytes accessed per row activation (Byte)
system.mem_ctrls.dram.bytesPerActivate::256-383          266      7.16%     45.14% # Bytes accessed per row activation (Byte)
system.mem_ctrls.dram.bytesPerActivate::384-511          378     10.18%     55.32% # Bytes accessed per row activation (Byte)
system.mem_ctrls.dram.bytesPerActivate::512-639          256      6.89%     62.21% # Bytes accessed per row activation (Byte)
system.mem_ctrls.dram.bytesPerActivate::640-767          138      3.72%     65.93% # Bytes accessed per row activation (Byte)
system.mem_ctrls.dram.bytesPerActivate::768-895          158      4.26%     70.19% # Bytes accessed per row activation (Byte)
system.mem_ctrls.dram.bytesPerActivate::896-1023          286      7.70%     77.89% # Bytes accessed per row activation (Byte)
system.mem_ctrls.dram.bytesPerActivate::1024-1151          821     22.11%    100.00% # Bytes accessed per row activation (Byte)
system.mem_ctrls.dram.bytesPerActivate::total         3713                       # Bytes accessed per row activation (Byte)
system.mem_ctrls.dram.bytesRead               1184960                       # Total bytes read (Byte)
system.mem_ctrls.dram.bytesWritten             649152                       # Total bytes written (Byte)
system.mem_ctrls.dram.avgRdBW              298.447692                       # Average DRAM read bandwidth in MiBytes/s ((Byte/Second))
system.mem_ctrls.dram.avgWrBW              163.497431                       # Average DRAM write bandwidth in MiBytes/s ((Byte/Second))
system.mem_ctrls.dram.peakBW                 12800.00                       # Theoretical peak bandwidth in MiByte/s ((Byte/Second))
system.mem_ctrls.dram.busUtil                    3.61                       # Data bus utilization in percentage (Ratio)
system.mem_ctrls.dram.busUtilRead                2.33                       # Data bus utilization in percentage for reads (Ratio)
system.mem_ctrls.dram.busUtilWrite               1.28                       # Data bus utilization in percentage for writes (Ratio)
system.mem_ctrls.dram.pageHitRate               87.00                       # Row buffer hit rate, read and write combined (Ratio)
system.mem_ctrls.dram.power_state.pwrStateResidencyTicks::UNDEFINED   3970411000                       # Cumulative time (in ticks) in various power states (Tick)
system.mem_ctrls.dram.rank0.actEnergy        12216540                       # Energy for activate commands per rank (pJ) (Joule)
system.mem_ctrls.dram.rank0.preEnergy         6470475                       # Energy for precharge commands per rank (pJ) (Joule)
system.mem_ctrls.dram.rank0.readEnergy       74820060                       # Energy for read commands per rank (pJ) (Joule)
system.mem_ctrls.dram.rank0.writeEnergy       7182720                       # Energy for write commands per rank (pJ) (Joule)
system.mem_ctrls.dram.rank0.refreshEnergy 312851760.000000                       # Energy for refresh commands per rank (pJ) (Joule)
system.mem_ctrls.dram.rank0.actBackEnergy    930282180                       # Energy for active background per rank (pJ) (Joule)
system.mem_ctrls.dram.rank0.preBackEnergy    741242400                       # Energy for precharge background per rank (pJ) (Joule)
system.mem_ctrls.dram.rank0.actPowerDownEnergy            0                       # Energy for active power-down per rank (pJ) (Joule)
system.mem_ctrls.dram.rank0.prePowerDownEnergy            0                       # Energy for precharge power-down per rank (pJ) (Joule)
system.mem_ctrls.dram.rank0.selfRefreshEnergy            0                       # Energy for self refresh per rank (pJ) (Joule)
system.mem_ctrls.dram.rank0.totalEnergy    2085066135                       # Total energy per rank (pJ) (Joule)
system.mem_ctrls.dram.rank0.averagePower   525.151209                       # Core power per rank (mW) (Watt)
system.mem_ctrls.dram.rank0.totalIdleTime            0                       # Total Idle time Per DRAM Rank (Tick)
system.mem_ctrls.dram.rank0.pwrStateTime::IDLE   1916543250                       # Time in different power states (Tick)
system.mem_ctrls.dram.rank0.pwrStateTime::REF    132340000                       # Time in different power states (Tick)
system.mem_ctrls.dram.rank0.pwrStateTime::SREF            0                       # Time in different power states (Tick)
system.mem_ctrls.dram.rank0.pwrStateTime::PRE_PDN            0                       # Time in different power states (Tick)
system.mem_ctrls.dram.rank0.pwrStateTime::ACT   1921527750                       # Time in different power states (Tick)
system.mem_ctrls.dram.rank0.pwrStateTime::ACT_PDN            0                       # Time in different power states (Tick)
system.mem_ctrls.dram.rank1.actEnergy        14379960                       # Energy for activate commands per rank (pJ) (Joule)
system.mem_ctrls.dram.rank1.preEnergy         7620360                       # Energy for precharge commands per rank (pJ) (Joule)
system.mem_ctrls.dram.rank1.readEnergy       57377040                       # Energy for read commands per rank (pJ) (Joule)
system.mem_ctrls.dram.rank1.writeEnergy      45763740                       # Energy for write commands per rank (pJ) (Joule)
system.mem_ctrls.dram.rank1.refreshEnergy 312851760.000000                       # Energy for refresh commands per rank (pJ) (Joule)
system.mem_ctrls.dram.rank1.actBackEnergy   1260787560                       # Energy for active background per rank (pJ) (Joule)
system.mem_ctrls.dram.rank1.preBackEnergy    462922080                       # Energy for precharge background per rank (pJ) (Joule)
system.mem_ctrls.dram.rank1.actPowerDownEnergy            0                       # Energy for active power-down per rank (pJ) (Joule)
system.mem_ctrls.dram.rank1.prePowerDownEnergy            0                       # Energy for precharge power-down per rank (pJ) (Joule)
system.mem_ctrls.dram.rank1.selfRefreshEnergy            0                       # Energy for self refresh per rank (pJ) (Joule)
system.mem_ctrls.dram.rank1.totalEnergy    2161702500                       # Total energy per rank (pJ) (Joule)
system.mem_ctrls.dram.rank1.averagePower   544.453081                       # Core power per rank (mW) (Watt)
system.mem_ctrls.dram.rank1.totalIdleTime            0                       # Total Idle time Per DRAM Rank (Tick)
system.mem_ctrls.dram.rank1.pwrStateTime::IDLE   1191323000                       # Time in different power states (Tick)
system.mem_ctrls.dram.rank1.pwrStateTime::REF    132340000                       # Time in different power states (Tick)
system.mem_ctrls.dram.rank1.pwrStateTime::SREF            0                       # Time in different power states (Tick)
system.mem_ctrls.dram.rank1.pwrStateTime::PRE_PDN            0                       # Time in different power states (Tick)
system.mem_ctrls.dram.rank1.pwrStateTime::ACT   2646748000                       # Time in different power states (Tick)
system.mem_ctrls.dram.rank1.pwrStateTime::ACT_PDN            0                       # Time in different power states (Tick)
system.mem_ctrls.power_state.pwrStateResidencyTicks::UNDEFINED   3970411000                       # Cumulative time (in ticks) in various power states (Tick)
system.membus.transDist::ReadResp               23414                       # Transaction distribution (Count)
system.membus.transDist::WritebackDirty         12154                       # Transaction distribution (Count)
system.membus.transDist::WritebackClean            20                       # Transaction distribution (Count)
system.membus.transDist::CleanEvict             10293                       # Transaction distribution (Count)
system.membus.transDist::ReadExReq                517                       # Transaction distribution (Count)
system.membus.transDist::ReadExResp               517                       # Transaction distribution (Count)
system.membus.transDist::ReadCleanReq             461                       # Transaction distribution (Count)
system.membus.transDist::ReadSharedReq          22954                       # Transaction distribution (Count)
system.membus.pktCount_system.cpu.icache.mem_side_port::system.mem_ctrls.port          941                       # Packet count per connected requestor and responder (Count)
system.membus.pktCount_system.cpu.icache.mem_side_port::total          941                       # Packet count per connected requestor and responder (Count)
system.membus.pktCount_system.cpu.dcache.mem_side_port::system.mem_ctrls.port        69389                       # Packet count per connected requestor and responder (Count)
system.membus.pktCount_system.cpu.dcache.mem_side_port::total        69389                       # Packet count per connected requestor and responder (Count)
system.membus.pktCount::total                   70330                       # Packet count per connected requestor and responder (Count)
system.membus.pktSize_system.cpu.icache.mem_side_port::system.mem_ctrls.port        30720                       # Cumulative packet size per connected requestor and responder (Byte)
system.membus.pktSize_system.cpu.icache.mem_side_port::total        30720                       # Cumulative packet size per connected requestor and responder (Byte)
system.membus.pktSize_system.cpu.dcache.mem_side_port::system.mem_ctrls.port      2280000                       # Cumulative packet size per connected requestor and responder (Byte)
system.membus.pktSize_system.cpu.dcache.mem_side_port::total      2280000                       # Cumulative packet size per connected requestor and responder (Byte)
system.membus.pktSize::total                  2310720                       # Cumulative packet size per connected requestor and responder (Byte)
system.membus.snoops                                0                       # Total snoops (Count)
system.membus.snoopTraffic                          0                       # Total snoop traffic (Byte)
system.membus.snoopFanout::samples              23932                       # Request fanout histogram (Count)
system.membus.snoopFanout::mean                     0                       # Request fanout histogram (Count)
system.membus.snoopFanout::stdev                    0                       # Request fanout histogram (Count)
system.membus.snoopFanout::underflows               0      0.00%      0.00% # Request fanout histogram (Count)
system.membus.snoopFanout::0                    23932    100.00%    100.00% # Request fanout histogram (Count)
system.membus.snoopFanout::1                        0      0.00%    100.00% # Request fanout histogram (Count)
system.membus.snoopFanout::2                        0      0.00%    100.00% # Request fanout histogram (Count)
system.membus.snoopFanout::3                        0      0.00%    100.00% # Request fanout histogram (Count)
system.membus.snoopFanout::4                        0      0.00%    100.00% # Request fanout histogram (Count)
system.membus.snoopFanout::overflows                0      0.00%    100.00% # Request fanout histogram (Count)
system.membus.snoopFanout::min_value                0                       # Request fanout histogram (Count)
system.membus.snoopFanout::max_value                0                       # Request fanout histogram (Count)
system.membus.snoopFanout::total                23932                       # Request fanout histogram (Count)
system.membus.power_state.pwrStateResidencyTicks::UNDEFINED   3970411000                       # Cumulative time (in ticks) in various power states (Tick)
system.membus.reqLayer2.occupancy            95095000                       # Layer occupancy (ticks) (Tick)
system.membus.reqLayer2.utilization               0.0                       # Layer utilization (Ratio)
system.membus.respLayer1.occupancy            2445750                       # Layer occupancy (ticks) (Tick)
system.membus.respLayer1.utilization              0.0                       # Layer utilization (Ratio)
system.membus.respLayer2.occupancy          123746000                       # Layer occupancy (ticks) (Tick)
system.membus.respLayer2.utilization              0.0                       # Layer utilization (Ratio)
system.membus.snoop_filter.totRequests          46399                       # Total number of requests made to the snoop filter. (Count)
system.membus.snoop_filter.hitSingleRequests        22467                       # Number of requests hitting in the snoop filter with a single holder of the requested data. (Count)
system.membus.snoop_filter.hitMultiRequests            0                       # Number of requests hitting in the snoop filter with multiple (>1) holders of the requested data. (Count)
system.membus.snoop_filter.totSnoops                0                       # Total number of snoops made to the snoop filter. (Count)
system.membus.snoop_filter.hitSingleSnoops            0                       # Number of snoops hitting in the snoop filter with a single holder of the requested data. (Count)
system.membus.snoop_filter.hitMultiSnoops            0                       # Number of snoops hitting in the snoop filter with multiple (>1) holders of the requested data. (Count)
system.voltage_domain.voltage                       1                       # Voltage in Volts (Volt)
system.workload.inst.arm                            0                       # number of arm instructions executed (Count)
system.workload.inst.quiesce                        0                       # number of quiesce instructions executed (Count)

---------- End Simulation Statistics   ----------
