
---------- Begin Simulation Statistics ----------
simSeconds                                   0.000621                       # Number of seconds simulated (Second)
simTicks                                    620810500                       # Number of ticks simulated (Tick)
finalTick                                   620810500                       # Number of ticks from beginning of simulation (restored from checkpoints and never reset) (Tick)
simFreq                                  1000000000000                       # The number of ticks per simulated second ((Tick/Second))
hostSeconds                                      7.65                       # Real time elapsed on the host (Second)
hostTickRate                                 81194064                       # The number of ticks simulated per host second (ticks/s) ((Tick/Second))
hostMemory                                    2254120                       # Number of bytes of host memory used (Byte)
simInsts                                      1927409                       # Number of instructions simulated (Count)
simOps                                        2023771                       # Number of ops (including micro ops) simulated (Count)
hostInstRate                                   252077                       # Simulator instruction rate (inst/s) ((Count/Second))
hostOpRate                                     264680                       # Simulator op (including micro ops) rate (op/s) ((Count/Second))
system.clk_domain.clock                          1000                       # Clock period in ticks (Tick)
system.cpu_cluster.clk_domain.clock               250                       # Clock period in ticks (Tick)
system.cpu_cluster.cpus.numCycles             2483242                       # Number of cpu cycles simulated (Cycle)
system.cpu_cluster.cpus.numWorkItemsStarted            0                       # Number of work items this cpu started (Count)
system.cpu_cluster.cpus.numWorkItemsCompleted            0                       # Number of work items this cpu completed (Count)
system.cpu_cluster.cpus.numInsts              1927409                       # Number of instructions committed (Count)
system.cpu_cluster.cpus.numOps                2023771                       # Number of ops (including micro ops) committed (Count)
system.cpu_cluster.cpus.numDiscardedOps          2267                       # Number of ops (including micro ops) which were discarded before commit (Count)
system.cpu_cluster.cpus.numFetchSuspends            0                       # Number of times Execute suspended instruction fetching (Count)
system.cpu_cluster.cpus.cpi                  1.288384                       # CPI: cycles per instruction ((Cycle/Count))
system.cpu_cluster.cpus.ipc                  0.776166                       # IPC: instructions per cycle ((Count/Cycle))
system.cpu_cluster.cpus.committedInstType_0::No_OpClass            1      0.00%      0.00% # Class of committed instruction (Count)
system.cpu_cluster.cpus.committedInstType_0::IntAlu      1297266     64.10%     64.10% # Class of committed instruction (Count)
system.cpu_cluster.cpus.committedInstType_0::IntMult         1249      0.06%     64.16% # Class of committed instruction (Count)
system.cpu_cluster.cpus.committedInstType_0::IntDiv            2      0.00%     64.16% # Class of committed instruction (Count)
system.cpu_cluster.cpus.committedInstType_0::FloatAdd        60000      2.96%     67.13% # Class of committed instruction (Count)
system.cpu_cluster.cpus.committedInstType_0::FloatCmp        20000      0.99%     68.12% # Class of committed instruction (Count)
system.cpu_cluster.cpus.committedInstType_0::FloatCvt        40000      1.98%     70.09% # Class of committed instruction (Count)
system.cpu_cluster.cpus.committedInstType_0::FloatMult        40000      1.98%     72.07% # Class of committed instruction (Count)
system.cpu_cluster.cpus.committedInstType_0::FloatMultAcc            0      0.00%     72.07% # Class of committed instruction (Count)
system.cpu_cluster.cpus.committedInstType_0::FloatDiv            0      0.00%     72.07% # Class of committed instruction (Count)
system.cpu_cluster.cpus.committedInstType_0::FloatMisc        20001      0.99%     73.06% # Class of committed instruction (Count)
system.cpu_cluster.cpus.committedInstType_0::FloatSqrt            0      0.00%     73.06% # Class of committed instruction (Count)
system.cpu_cluster.cpus.committedInstType_0::SimdAdd            7      0.00%     73.06% # Class of committed instruction (Count)
system.cpu_cluster.cpus.committedInstType_0::SimdAddAcc            0      0.00%     73.06% # Class of committed instruction (Count)
system.cpu_cluster.cpus.committedInstType_0::SimdAlu            4      0.00%     73.06% # Class of committed instruction (Count)
system.cpu_cluster.cpus.committedInstType_0::SimdCmp            4      0.00%     73.06% # Class of committed instruction (Count)
system.cpu_cluster.cpus.committedInstType_0::SimdCvt            0      0.00%     73.06% # Class of committed instruction (Count)
system.cpu_cluster.cpus.committedInstType_0::SimdMisc        20005      0.99%     74.05% # Class of committed instruction (Count)
system.cpu_cluster.cpus.committedInstType_0::SimdMult            0      0.00%     74.05% # Class of committed instruction (Count)
system.cpu_cluster.cpus.committedInstType_0::SimdMultAcc            0      0.00%     74.05% # Class of committed instruction (Count)
system.cpu_cluster.cpus.committedInstType_0::SimdShift            0      0.00%     74.05% # Class of committed instruction (Count)
system.cpu_cluster.cpus.committedInstType_0::SimdShiftAcc            0      0.00%     74.05% # Class of committed instruction (Count)
system.cpu_cluster.cpus.committedInstType_0::SimdDiv            0      0.00%     74.05% # Class of committed instruction (Count)
system.cpu_cluster.cpus.committedInstType_0::SimdSqrt            0      0.00%     74.05% # Class of committed instruction (Count)
system.cpu_cluster.cpus.committedInstType_0::SimdFloatAdd            0      0.00%     74.05% # Class of committed instruction (Count)
system.cpu_cluster.cpus.committedInstType_0::SimdFloatAlu            0      0.00%     74.05% # Class of committed instruction (Count)
system.cpu_cluster.cpus.committedInstType_0::SimdFloatCmp            0      0.00%     74.05% # Class of committed instruction (Count)
system.cpu_cluster.cpus.committedInstType_0::SimdFloatCvt            0      0.00%     74.05% # Class of committed instruction (Count)
system.cpu_cluster.cpus.committedInstType_0::SimdFloatDiv            0      0.00%     74.05% # Class of committed instruction (Count)
system.cpu_cluster.cpus.committedInstType_0::SimdFloatMisc            0      0.00%     74.05% # Class of committed instruction (Count)
system.cpu_cluster.cpus.committedInstType_0::SimdFloatMult            0      0.00%     74.05% # Class of committed instruction (Count)
system.cpu_cluster.cpus.committedInstType_0::SimdFloatMultAcc            0      0.00%     74.05% # Class of committed instruction (Count)
system.cpu_cluster.cpus.committedInstType_0::SimdFloatSqrt            0      0.00%     74.05% # Class of committed instruction (Count)
system.cpu_cluster.cpus.committedInstType_0::SimdReduceAdd            0      0.00%     74.05% # Class of committed instruction (Count)
system.cpu_cluster.cpus.committedInstType_0::SimdReduceAlu            0      0.00%     74.05% # Class of committed instruction (Count)
system.cpu_cluster.cpus.committedInstType_0::SimdReduceCmp            0      0.00%     74.05% # Class of committed instruction (Count)
system.cpu_cluster.cpus.committedInstType_0::SimdFloatReduceAdd            0      0.00%     74.05% # Class of committed instruction (Count)
system.cpu_cluster.cpus.committedInstType_0::SimdFloatReduceCmp            0      0.00%     74.05% # Class of committed instruction (Count)
system.cpu_cluster.cpus.committedInstType_0::SimdAes            0      0.00%     74.05% # Class of committed instruction (Count)
system.cpu_cluster.cpus.committedInstType_0::SimdAesMix            0      0.00%     74.05% # Class of committed instruction (Count)
system.cpu_cluster.cpus.committedInstType_0::SimdSha1Hash            0      0.00%     74.05% # Class of committed instruction (Count)
system.cpu_cluster.cpus.committedInstType_0::SimdSha1Hash2            0      0.00%     74.05% # Class of committed instruction (Count)
system.cpu_cluster.cpus.committedInstType_0::SimdSha256Hash            0      0.00%     74.05% # Class of committed instruction (Count)
system.cpu_cluster.cpus.committedInstType_0::SimdSha256Hash2            0      0.00%     74.05% # Class of committed instruction (Count)
system.cpu_cluster.cpus.committedInstType_0::SimdShaSigma2            0      0.00%     74.05% # Class of committed instruction (Count)
system.cpu_cluster.cpus.committedInstType_0::SimdShaSigma3            0      0.00%     74.05% # Class of committed instruction (Count)
system.cpu_cluster.cpus.committedInstType_0::SimdPredAlu            0      0.00%     74.05% # Class of committed instruction (Count)
system.cpu_cluster.cpus.committedInstType_0::MemRead       342942     16.95%     90.99% # Class of committed instruction (Count)
system.cpu_cluster.cpus.committedInstType_0::MemWrite       182290      9.01%    100.00% # Class of committed instruction (Count)
system.cpu_cluster.cpus.committedInstType_0::FloatMemRead            0      0.00%    100.00% # Class of committed instruction (Count)
system.cpu_cluster.cpus.committedInstType_0::FloatMemWrite            0      0.00%    100.00% # Class of committed instruction (Count)
system.cpu_cluster.cpus.committedInstType_0::IprAccess            0      0.00%    100.00% # Class of committed instruction (Count)
system.cpu_cluster.cpus.committedInstType_0::InstPrefetch            0      0.00%    100.00% # Class of committed instruction (Count)
system.cpu_cluster.cpus.committedInstType_0::total      2023771                       # Class of committed instruction (Count)
system.cpu_cluster.cpus.branchPred.lookups       234147                       # Number of BP lookups (Count)
system.cpu_cluster.cpus.branchPred.condPredicted       112819                       # Number of conditional branches predicted (Count)
system.cpu_cluster.cpus.branchPred.condIncorrect          671                       # Number of conditional branches incorrect (Count)
system.cpu_cluster.cpus.branchPred.BTBLookups       112785                       # Number of BTB lookups (Count)
system.cpu_cluster.cpus.branchPred.BTBHits       111631                       # Number of BTB hits (Count)
system.cpu_cluster.cpus.branchPred.BTBHitRatio     0.989768                       # BTB Hit Ratio (Ratio)
system.cpu_cluster.cpus.branchPred.RASUsed        60225                       # Number of times the RAS was used to get a target. (Count)
system.cpu_cluster.cpus.branchPred.RASIncorrect            8                       # Number of incorrect RAS predictions. (Count)
system.cpu_cluster.cpus.branchPred.indirectLookups           33                       # Number of indirect predictor lookups. (Count)
system.cpu_cluster.cpus.branchPred.indirectHits            0                       # Number of indirect target hits. (Count)
system.cpu_cluster.cpus.branchPred.indirectMisses           33                       # Number of indirect misses. (Count)
system.cpu_cluster.cpus.branchPred.indirectMispredicted           11                       # Number of mispredicted indirect branches. (Count)
system.cpu_cluster.cpus.dcache.demandHits::cpu_cluster.cpus.data       520001                       # number of demand (read+write) hits (Count)
system.cpu_cluster.cpus.dcache.demandHits::total       520001                       # number of demand (read+write) hits (Count)
system.cpu_cluster.cpus.dcache.overallHits::cpu_cluster.cpus.data       520001                       # number of overall hits (Count)
system.cpu_cluster.cpus.dcache.overallHits::total       520001                       # number of overall hits (Count)
system.cpu_cluster.cpus.dcache.demandMisses::cpu_cluster.cpus.data         5341                       # number of demand (read+write) misses (Count)
system.cpu_cluster.cpus.dcache.demandMisses::total         5341                       # number of demand (read+write) misses (Count)
system.cpu_cluster.cpus.dcache.overallMisses::cpu_cluster.cpus.data         5341                       # number of overall misses (Count)
system.cpu_cluster.cpus.dcache.overallMisses::total         5341                       # number of overall misses (Count)
system.cpu_cluster.cpus.dcache.demandMissLatency::cpu_cluster.cpus.data    211835000                       # number of demand (read+write) miss ticks (Tick)
system.cpu_cluster.cpus.dcache.demandMissLatency::total    211835000                       # number of demand (read+write) miss ticks (Tick)
system.cpu_cluster.cpus.dcache.overallMissLatency::cpu_cluster.cpus.data    211835000                       # number of overall miss ticks (Tick)
system.cpu_cluster.cpus.dcache.overallMissLatency::total    211835000                       # number of overall miss ticks (Tick)
system.cpu_cluster.cpus.dcache.demandAccesses::cpu_cluster.cpus.data       525342                       # number of demand (read+write) accesses (Count)
system.cpu_cluster.cpus.dcache.demandAccesses::total       525342                       # number of demand (read+write) accesses (Count)
system.cpu_cluster.cpus.dcache.overallAccesses::cpu_cluster.cpus.data       525342                       # number of overall (read+write) accesses (Count)
system.cpu_cluster.cpus.dcache.overallAccesses::total       525342                       # number of overall (read+write) accesses (Count)
system.cpu_cluster.cpus.dcache.demandMissRate::cpu_cluster.cpus.data     0.010167                       # miss rate for demand accesses (Ratio)
system.cpu_cluster.cpus.dcache.demandMissRate::total     0.010167                       # miss rate for demand accesses (Ratio)
system.cpu_cluster.cpus.dcache.overallMissRate::cpu_cluster.cpus.data     0.010167                       # miss rate for overall accesses (Ratio)
system.cpu_cluster.cpus.dcache.overallMissRate::total     0.010167                       # miss rate for overall accesses (Ratio)
system.cpu_cluster.cpus.dcache.demandAvgMissLatency::cpu_cluster.cpus.data 39662.048306                       # average overall miss latency ((Cycle/Count))
system.cpu_cluster.cpus.dcache.demandAvgMissLatency::total 39662.048306                       # average overall miss latency ((Cycle/Count))
system.cpu_cluster.cpus.dcache.overallAvgMissLatency::cpu_cluster.cpus.data 39662.048306                       # average overall miss latency ((Cycle/Count))
system.cpu_cluster.cpus.dcache.overallAvgMissLatency::total 39662.048306                       # average overall miss latency ((Cycle/Count))
system.cpu_cluster.cpus.dcache.blockedCycles::no_mshrs            0                       # number of cycles access was blocked (Cycle)
system.cpu_cluster.cpus.dcache.blockedCycles::no_targets            0                       # number of cycles access was blocked (Cycle)
system.cpu_cluster.cpus.dcache.blockedCauses::no_mshrs            0                       # number of times access was blocked (Count)
system.cpu_cluster.cpus.dcache.blockedCauses::no_targets            0                       # number of times access was blocked (Count)
system.cpu_cluster.cpus.dcache.avgBlocked::no_mshrs          nan                       # average number of cycles each access was blocked ((Cycle/Count))
system.cpu_cluster.cpus.dcache.avgBlocked::no_targets          nan                       # average number of cycles each access was blocked ((Cycle/Count))
system.cpu_cluster.cpus.dcache.writebacks::writebacks         2162                       # number of writebacks (Count)
system.cpu_cluster.cpus.dcache.writebacks::total         2162                       # number of writebacks (Count)
system.cpu_cluster.cpus.dcache.demandMshrHits::cpu_cluster.cpus.data         2630                       # number of demand (read+write) MSHR hits (Count)
system.cpu_cluster.cpus.dcache.demandMshrHits::total         2630                       # number of demand (read+write) MSHR hits (Count)
system.cpu_cluster.cpus.dcache.overallMshrHits::cpu_cluster.cpus.data         2630                       # number of overall MSHR hits (Count)
system.cpu_cluster.cpus.dcache.overallMshrHits::total         2630                       # number of overall MSHR hits (Count)
system.cpu_cluster.cpus.dcache.demandMshrMisses::cpu_cluster.cpus.data         2711                       # number of demand (read+write) MSHR misses (Count)
system.cpu_cluster.cpus.dcache.demandMshrMisses::total         2711                       # number of demand (read+write) MSHR misses (Count)
system.cpu_cluster.cpus.dcache.overallMshrMisses::cpu_cluster.cpus.data         2711                       # number of overall MSHR misses (Count)
system.cpu_cluster.cpus.dcache.overallMshrMisses::total         2711                       # number of overall MSHR misses (Count)
system.cpu_cluster.cpus.dcache.demandMshrMissLatency::cpu_cluster.cpus.data    160744000                       # number of demand (read+write) MSHR miss ticks (Tick)
system.cpu_cluster.cpus.dcache.demandMshrMissLatency::total    160744000                       # number of demand (read+write) MSHR miss ticks (Tick)
system.cpu_cluster.cpus.dcache.overallMshrMissLatency::cpu_cluster.cpus.data    160744000                       # number of overall MSHR miss ticks (Tick)
system.cpu_cluster.cpus.dcache.overallMshrMissLatency::total    160744000                       # number of overall MSHR miss ticks (Tick)
system.cpu_cluster.cpus.dcache.demandMshrMissRate::cpu_cluster.cpus.data     0.005160                       # mshr miss ratio for demand accesses (Ratio)
system.cpu_cluster.cpus.dcache.demandMshrMissRate::total     0.005160                       # mshr miss ratio for demand accesses (Ratio)
system.cpu_cluster.cpus.dcache.overallMshrMissRate::cpu_cluster.cpus.data     0.005160                       # mshr miss ratio for overall accesses (Ratio)
system.cpu_cluster.cpus.dcache.overallMshrMissRate::total     0.005160                       # mshr miss ratio for overall accesses (Ratio)
system.cpu_cluster.cpus.dcache.demandAvgMshrMissLatency::cpu_cluster.cpus.data 59293.249723                       # average overall mshr miss latency ((Cycle/Count))
system.cpu_cluster.cpus.dcache.demandAvgMshrMissLatency::total 59293.249723                       # average overall mshr miss latency ((Cycle/Count))
system.cpu_cluster.cpus.dcache.overallAvgMshrMissLatency::cpu_cluster.cpus.data 59293.249723                       # average overall mshr miss latency ((Cycle/Count))
system.cpu_cluster.cpus.dcache.overallAvgMshrMissLatency::total 59293.249723                       # average overall mshr miss latency ((Cycle/Count))
system.cpu_cluster.cpus.dcache.replacements         2200                       # number of replacements (Count)
system.cpu_cluster.cpus.dcache.LoadLockedReq.hits::cpu_cluster.cpus.data           15                       # number of LoadLockedReq hits (Count)
system.cpu_cluster.cpus.dcache.LoadLockedReq.hits::total           15                       # number of LoadLockedReq hits (Count)
system.cpu_cluster.cpus.dcache.LoadLockedReq.misses::cpu_cluster.cpus.data            1                       # number of LoadLockedReq misses (Count)
system.cpu_cluster.cpus.dcache.LoadLockedReq.misses::total            1                       # number of LoadLockedReq misses (Count)
system.cpu_cluster.cpus.dcache.LoadLockedReq.missLatency::cpu_cluster.cpus.data        56250                       # number of LoadLockedReq miss ticks (Tick)
system.cpu_cluster.cpus.dcache.LoadLockedReq.missLatency::total        56250                       # number of LoadLockedReq miss ticks (Tick)
system.cpu_cluster.cpus.dcache.LoadLockedReq.accesses::cpu_cluster.cpus.data           16                       # number of LoadLockedReq accesses(hits+misses) (Count)
system.cpu_cluster.cpus.dcache.LoadLockedReq.accesses::total           16                       # number of LoadLockedReq accesses(hits+misses) (Count)
system.cpu_cluster.cpus.dcache.LoadLockedReq.missRate::cpu_cluster.cpus.data     0.062500                       # miss rate for LoadLockedReq accesses (Ratio)
system.cpu_cluster.cpus.dcache.LoadLockedReq.missRate::total     0.062500                       # miss rate for LoadLockedReq accesses (Ratio)
system.cpu_cluster.cpus.dcache.LoadLockedReq.avgMissLatency::cpu_cluster.cpus.data        56250                       # average LoadLockedReq miss latency ((Tick/Count))
system.cpu_cluster.cpus.dcache.LoadLockedReq.avgMissLatency::total        56250                       # average LoadLockedReq miss latency ((Tick/Count))
system.cpu_cluster.cpus.dcache.LoadLockedReq.mshrMisses::cpu_cluster.cpus.data            1                       # number of LoadLockedReq MSHR misses (Count)
system.cpu_cluster.cpus.dcache.LoadLockedReq.mshrMisses::total            1                       # number of LoadLockedReq MSHR misses (Count)
system.cpu_cluster.cpus.dcache.LoadLockedReq.mshrMissLatency::cpu_cluster.cpus.data        56000                       # number of LoadLockedReq MSHR miss ticks (Tick)
system.cpu_cluster.cpus.dcache.LoadLockedReq.mshrMissLatency::total        56000                       # number of LoadLockedReq MSHR miss ticks (Tick)
system.cpu_cluster.cpus.dcache.LoadLockedReq.mshrMissRate::cpu_cluster.cpus.data     0.062500                       # mshr miss rate for LoadLockedReq accesses (Ratio)
system.cpu_cluster.cpus.dcache.LoadLockedReq.mshrMissRate::total     0.062500                       # mshr miss rate for LoadLockedReq accesses (Ratio)
system.cpu_cluster.cpus.dcache.LoadLockedReq.avgMshrMissLatency::cpu_cluster.cpus.data        56000                       # average LoadLockedReq mshr miss latency ((Tick/Count))
system.cpu_cluster.cpus.dcache.LoadLockedReq.avgMshrMissLatency::total        56000                       # average LoadLockedReq mshr miss latency ((Tick/Count))
system.cpu_cluster.cpus.dcache.ReadReq.hits::cpu_cluster.cpus.data       343054                       # number of ReadReq hits (Count)
system.cpu_cluster.cpus.dcache.ReadReq.hits::total       343054                       # number of ReadReq hits (Count)
system.cpu_cluster.cpus.dcache.ReadReq.misses::cpu_cluster.cpus.data           57                       # number of ReadReq misses (Count)
system.cpu_cluster.cpus.dcache.ReadReq.misses::total           57                       # number of ReadReq misses (Count)
system.cpu_cluster.cpus.dcache.ReadReq.missLatency::cpu_cluster.cpus.data      3390000                       # number of ReadReq miss ticks (Tick)
system.cpu_cluster.cpus.dcache.ReadReq.missLatency::total      3390000                       # number of ReadReq miss ticks (Tick)
system.cpu_cluster.cpus.dcache.ReadReq.accesses::cpu_cluster.cpus.data       343111                       # number of ReadReq accesses(hits+misses) (Count)
system.cpu_cluster.cpus.dcache.ReadReq.accesses::total       343111                       # number of ReadReq accesses(hits+misses) (Count)
system.cpu_cluster.cpus.dcache.ReadReq.missRate::cpu_cluster.cpus.data     0.000166                       # miss rate for ReadReq accesses (Ratio)
system.cpu_cluster.cpus.dcache.ReadReq.missRate::total     0.000166                       # miss rate for ReadReq accesses (Ratio)
system.cpu_cluster.cpus.dcache.ReadReq.avgMissLatency::cpu_cluster.cpus.data 59473.684211                       # average ReadReq miss latency ((Tick/Count))
system.cpu_cluster.cpus.dcache.ReadReq.avgMissLatency::total 59473.684211                       # average ReadReq miss latency ((Tick/Count))
system.cpu_cluster.cpus.dcache.ReadReq.mshrHits::cpu_cluster.cpus.data            2                       # number of ReadReq MSHR hits (Count)
system.cpu_cluster.cpus.dcache.ReadReq.mshrHits::total            2                       # number of ReadReq MSHR hits (Count)
system.cpu_cluster.cpus.dcache.ReadReq.mshrMisses::cpu_cluster.cpus.data           55                       # number of ReadReq MSHR misses (Count)
system.cpu_cluster.cpus.dcache.ReadReq.mshrMisses::total           55                       # number of ReadReq MSHR misses (Count)
system.cpu_cluster.cpus.dcache.ReadReq.mshrMissLatency::cpu_cluster.cpus.data      3316500                       # number of ReadReq MSHR miss ticks (Tick)
system.cpu_cluster.cpus.dcache.ReadReq.mshrMissLatency::total      3316500                       # number of ReadReq MSHR miss ticks (Tick)
system.cpu_cluster.cpus.dcache.ReadReq.mshrMissRate::cpu_cluster.cpus.data     0.000160                       # mshr miss rate for ReadReq accesses (Ratio)
system.cpu_cluster.cpus.dcache.ReadReq.mshrMissRate::total     0.000160                       # mshr miss rate for ReadReq accesses (Ratio)
system.cpu_cluster.cpus.dcache.ReadReq.avgMshrMissLatency::cpu_cluster.cpus.data        60300                       # average ReadReq mshr miss latency ((Tick/Count))
system.cpu_cluster.cpus.dcache.ReadReq.avgMshrMissLatency::total        60300                       # average ReadReq mshr miss latency ((Tick/Count))
system.cpu_cluster.cpus.dcache.StoreCondReq.hits::cpu_cluster.cpus.data           16                       # number of StoreCondReq hits (Count)
system.cpu_cluster.cpus.dcache.StoreCondReq.hits::total           16                       # number of StoreCondReq hits (Count)
system.cpu_cluster.cpus.dcache.StoreCondReq.accesses::cpu_cluster.cpus.data           16                       # number of StoreCondReq accesses(hits+misses) (Count)
system.cpu_cluster.cpus.dcache.StoreCondReq.accesses::total           16                       # number of StoreCondReq accesses(hits+misses) (Count)
system.cpu_cluster.cpus.dcache.WriteReq.hits::cpu_cluster.cpus.data       176947                       # number of WriteReq hits (Count)
system.cpu_cluster.cpus.dcache.WriteReq.hits::total       176947                       # number of WriteReq hits (Count)
system.cpu_cluster.cpus.dcache.WriteReq.misses::cpu_cluster.cpus.data         5284                       # number of WriteReq misses (Count)
system.cpu_cluster.cpus.dcache.WriteReq.misses::total         5284                       # number of WriteReq misses (Count)
system.cpu_cluster.cpus.dcache.WriteReq.missLatency::cpu_cluster.cpus.data    208445000                       # number of WriteReq miss ticks (Tick)
system.cpu_cluster.cpus.dcache.WriteReq.missLatency::total    208445000                       # number of WriteReq miss ticks (Tick)
system.cpu_cluster.cpus.dcache.WriteReq.accesses::cpu_cluster.cpus.data       182231                       # number of WriteReq accesses(hits+misses) (Count)
system.cpu_cluster.cpus.dcache.WriteReq.accesses::total       182231                       # number of WriteReq accesses(hits+misses) (Count)
system.cpu_cluster.cpus.dcache.WriteReq.missRate::cpu_cluster.cpus.data     0.028996                       # miss rate for WriteReq accesses (Ratio)
system.cpu_cluster.cpus.dcache.WriteReq.missRate::total     0.028996                       # miss rate for WriteReq accesses (Ratio)
system.cpu_cluster.cpus.dcache.WriteReq.avgMissLatency::cpu_cluster.cpus.data 39448.334595                       # average WriteReq miss latency ((Tick/Count))
system.cpu_cluster.cpus.dcache.WriteReq.avgMissLatency::total 39448.334595                       # average WriteReq miss latency ((Tick/Count))
system.cpu_cluster.cpus.dcache.WriteReq.mshrHits::cpu_cluster.cpus.data         2628                       # number of WriteReq MSHR hits (Count)
system.cpu_cluster.cpus.dcache.WriteReq.mshrHits::total         2628                       # number of WriteReq MSHR hits (Count)
system.cpu_cluster.cpus.dcache.WriteReq.mshrMisses::cpu_cluster.cpus.data         2656                       # number of WriteReq MSHR misses (Count)
system.cpu_cluster.cpus.dcache.WriteReq.mshrMisses::total         2656                       # number of WriteReq MSHR misses (Count)
system.cpu_cluster.cpus.dcache.WriteReq.mshrMissLatency::cpu_cluster.cpus.data    157427500                       # number of WriteReq MSHR miss ticks (Tick)
system.cpu_cluster.cpus.dcache.WriteReq.mshrMissLatency::total    157427500                       # number of WriteReq MSHR miss ticks (Tick)
system.cpu_cluster.cpus.dcache.WriteReq.mshrMissRate::cpu_cluster.cpus.data     0.014575                       # mshr miss rate for WriteReq accesses (Ratio)
system.cpu_cluster.cpus.dcache.WriteReq.mshrMissRate::total     0.014575                       # mshr miss rate for WriteReq accesses (Ratio)
system.cpu_cluster.cpus.dcache.WriteReq.avgMshrMissLatency::cpu_cluster.cpus.data 59272.402108                       # average WriteReq mshr miss latency ((Tick/Count))
system.cpu_cluster.cpus.dcache.WriteReq.avgMshrMissLatency::total 59272.402108                       # average WriteReq mshr miss latency ((Tick/Count))
system.cpu_cluster.cpus.dcache.power_state.pwrStateResidencyTicks::UNDEFINED    620810500                       # Cumulative time (in ticks) in various power states (Tick)
system.cpu_cluster.cpus.dcache.prefetcher.demandMshrMisses         2711                       # demands not covered by prefetchs (Count)
system.cpu_cluster.cpus.dcache.prefetcher.pfIssued            0                       # number of hwpf issued (Count)
system.cpu_cluster.cpus.dcache.prefetcher.pfUseful            0                       # number of useful prefetch (Count)
system.cpu_cluster.cpus.dcache.prefetcher.pfUsefulButMiss            0                       # number of hit on prefetch but cache block is not in an usable state (Count)
system.cpu_cluster.cpus.dcache.prefetcher.accuracy          nan                       # accuracy of the prefetcher (Count)
system.cpu_cluster.cpus.dcache.prefetcher.coverage            0                       # coverage brought by this prefetcher (Count)
system.cpu_cluster.cpus.dcache.prefetcher.pfHitInCache            0                       # number of prefetches hitting in cache (Count)
system.cpu_cluster.cpus.dcache.prefetcher.pfHitInMSHR            0                       # number of prefetches hitting in a MSHR (Count)
system.cpu_cluster.cpus.dcache.prefetcher.pfHitInWB            0                       # number of prefetches hit in the Write Buffer (Count)
system.cpu_cluster.cpus.dcache.prefetcher.pfLate            0                       # number of late prefetches (hitting in cache, MSHR or WB) (Count)
system.cpu_cluster.cpus.dcache.prefetcher.pfIdentified            0                       # number of prefetch candidates identified (Count)
system.cpu_cluster.cpus.dcache.prefetcher.pfBufferHit            0                       # number of redundant prefetches already in prefetch queue (Count)
system.cpu_cluster.cpus.dcache.prefetcher.pfInCache            0                       # number of redundant prefetches already in cache/mshr dropped (Count)
system.cpu_cluster.cpus.dcache.prefetcher.pfRemovedDemand            0                       # number of prefetches dropped due to a demand for the same address (Count)
system.cpu_cluster.cpus.dcache.prefetcher.pfRemovedFull            0                       # number of prefetches dropped due to prefetch queue size (Count)
system.cpu_cluster.cpus.dcache.prefetcher.pfSpanPage            0                       # number of prefetches that crossed the page (Count)
system.cpu_cluster.cpus.dcache.prefetcher.power_state.pwrStateResidencyTicks::UNDEFINED    620810500                       # Cumulative time (in ticks) in various power states (Tick)
system.cpu_cluster.cpus.dcache.tags.tagsInUse   471.998075                       # Average ticks per tags in use ((Tick/Count))
system.cpu_cluster.cpus.dcache.tags.totalRefs        15495                       # Total number of references to valid blocks. (Count)
system.cpu_cluster.cpus.dcache.tags.sampledRefs         2200                       # Sample count of references to valid blocks. (Count)
system.cpu_cluster.cpus.dcache.tags.avgRefs     7.043182                       # Average number of references to valid blocks. ((Count/Count))
system.cpu_cluster.cpus.dcache.tags.warmupTick       152500                       # The tick when the warmup percentage was hit. (Tick)
system.cpu_cluster.cpus.dcache.tags.occupancies::cpu_cluster.cpus.data   471.998075                       # Average occupied blocks per tick, per requestor ((Count/Tick))
system.cpu_cluster.cpus.dcache.tags.avgOccs::cpu_cluster.cpus.data     0.921871                       # Average percentage of cache occupancy ((Ratio/Tick))
system.cpu_cluster.cpus.dcache.tags.avgOccs::total     0.921871                       # Average percentage of cache occupancy ((Ratio/Tick))
system.cpu_cluster.cpus.dcache.tags.occupanciesTaskId::1024          512                       # Occupied blocks per task id (Count)
system.cpu_cluster.cpus.dcache.tags.ageTaskId_1024::0           44                       # Occupied blocks per task id, per block age (Count)
system.cpu_cluster.cpus.dcache.tags.ageTaskId_1024::1          361                       # Occupied blocks per task id, per block age (Count)
system.cpu_cluster.cpus.dcache.tags.ageTaskId_1024::2          107                       # Occupied blocks per task id, per block age (Count)
system.cpu_cluster.cpus.dcache.tags.ratioOccsTaskId::1024            1                       # Ratio of occupied blocks and all blocks, per task id (Ratio)
system.cpu_cluster.cpus.dcache.tags.tagAccesses      2104208                       # Number of tag accesses (Count)
system.cpu_cluster.cpus.dcache.tags.dataAccesses      2104208                       # Number of data accesses (Count)
system.cpu_cluster.cpus.dcache.tags.power_state.pwrStateResidencyTicks::UNDEFINED    620810500                       # Cumulative time (in ticks) in various power states (Tick)
system.cpu_cluster.cpus.fetch2.intInstructions      1118732                       # Number of integer instructions successfully decoded (Count)
system.cpu_cluster.cpus.fetch2.fpInstructions            0                       # Number of floating point instructions successfully decoded (Count)
system.cpu_cluster.cpus.fetch2.vecInstructions       200520                       # Number of SIMD instructions successfully decoded (Count)
system.cpu_cluster.cpus.fetch2.loadInstructions       324675                       # Number of memory load instructions successfully decoded (Count)
system.cpu_cluster.cpus.fetch2.storeInstructions       127029                       # Number of memory store instructions successfully decoded (Count)
system.cpu_cluster.cpus.fetch2.amoInstructions            0                       # Number of memory atomic instructions successfully decoded (Count)
system.cpu_cluster.cpus.icache.demandHits::cpu_cluster.cpus.inst       590639                       # number of demand (read+write) hits (Count)
system.cpu_cluster.cpus.icache.demandHits::total       590639                       # number of demand (read+write) hits (Count)
system.cpu_cluster.cpus.icache.overallHits::cpu_cluster.cpus.inst       590639                       # number of overall hits (Count)
system.cpu_cluster.cpus.icache.overallHits::total       590639                       # number of overall hits (Count)
system.cpu_cluster.cpus.icache.demandMisses::cpu_cluster.cpus.inst          313                       # number of demand (read+write) misses (Count)
system.cpu_cluster.cpus.icache.demandMisses::total          313                       # number of demand (read+write) misses (Count)
system.cpu_cluster.cpus.icache.overallMisses::cpu_cluster.cpus.inst          313                       # number of overall misses (Count)
system.cpu_cluster.cpus.icache.overallMisses::total          313                       # number of overall misses (Count)
system.cpu_cluster.cpus.icache.demandMissLatency::cpu_cluster.cpus.inst     17712500                       # number of demand (read+write) miss ticks (Tick)
system.cpu_cluster.cpus.icache.demandMissLatency::total     17712500                       # number of demand (read+write) miss ticks (Tick)
system.cpu_cluster.cpus.icache.overallMissLatency::cpu_cluster.cpus.inst     17712500                       # number of overall miss ticks (Tick)
system.cpu_cluster.cpus.icache.overallMissLatency::total     17712500                       # number of overall miss ticks (Tick)
system.cpu_cluster.cpus.icache.demandAccesses::cpu_cluster.cpus.inst       590952                       # number of demand (read+write) accesses (Count)
system.cpu_cluster.cpus.icache.demandAccesses::total       590952                       # number of demand (read+write) accesses (Count)
system.cpu_cluster.cpus.icache.overallAccesses::cpu_cluster.cpus.inst       590952                       # number of overall (read+write) accesses (Count)
system.cpu_cluster.cpus.icache.overallAccesses::total       590952                       # number of overall (read+write) accesses (Count)
system.cpu_cluster.cpus.icache.demandMissRate::cpu_cluster.cpus.inst     0.000530                       # miss rate for demand accesses (Ratio)
system.cpu_cluster.cpus.icache.demandMissRate::total     0.000530                       # miss rate for demand accesses (Ratio)
system.cpu_cluster.cpus.icache.overallMissRate::cpu_cluster.cpus.inst     0.000530                       # miss rate for overall accesses (Ratio)
system.cpu_cluster.cpus.icache.overallMissRate::total     0.000530                       # miss rate for overall accesses (Ratio)
system.cpu_cluster.cpus.icache.demandAvgMissLatency::cpu_cluster.cpus.inst 56589.456869                       # average overall miss latency ((Cycle/Count))
system.cpu_cluster.cpus.icache.demandAvgMissLatency::total 56589.456869                       # average overall miss latency ((Cycle/Count))
system.cpu_cluster.cpus.icache.overallAvgMissLatency::cpu_cluster.cpus.inst 56589.456869                       # average overall miss latency ((Cycle/Count))
system.cpu_cluster.cpus.icache.overallAvgMissLatency::total 56589.456869                       # average overall miss latency ((Cycle/Count))
system.cpu_cluster.cpus.icache.blockedCycles::no_mshrs            0                       # number of cycles access was blocked (Cycle)
system.cpu_cluster.cpus.icache.blockedCycles::no_targets            0                       # number of cycles access was blocked (Cycle)
system.cpu_cluster.cpus.icache.blockedCauses::no_mshrs            0                       # number of times access was blocked (Count)
system.cpu_cluster.cpus.icache.blockedCauses::no_targets            0                       # number of times access was blocked (Count)
system.cpu_cluster.cpus.icache.avgBlocked::no_mshrs          nan                       # average number of cycles each access was blocked ((Cycle/Count))
system.cpu_cluster.cpus.icache.avgBlocked::no_targets          nan                       # average number of cycles each access was blocked ((Cycle/Count))
system.cpu_cluster.cpus.icache.demandMshrMisses::cpu_cluster.cpus.inst          313                       # number of demand (read+write) MSHR misses (Count)
system.cpu_cluster.cpus.icache.demandMshrMisses::total          313                       # number of demand (read+write) MSHR misses (Count)
system.cpu_cluster.cpus.icache.overallMshrMisses::cpu_cluster.cpus.inst          313                       # number of overall MSHR misses (Count)
system.cpu_cluster.cpus.icache.overallMshrMisses::total          313                       # number of overall MSHR misses (Count)
system.cpu_cluster.cpus.icache.demandMshrMissLatency::cpu_cluster.cpus.inst     17634500                       # number of demand (read+write) MSHR miss ticks (Tick)
system.cpu_cluster.cpus.icache.demandMshrMissLatency::total     17634500                       # number of demand (read+write) MSHR miss ticks (Tick)
system.cpu_cluster.cpus.icache.overallMshrMissLatency::cpu_cluster.cpus.inst     17634500                       # number of overall MSHR miss ticks (Tick)
system.cpu_cluster.cpus.icache.overallMshrMissLatency::total     17634500                       # number of overall MSHR miss ticks (Tick)
system.cpu_cluster.cpus.icache.demandMshrMissRate::cpu_cluster.cpus.inst     0.000530                       # mshr miss ratio for demand accesses (Ratio)
system.cpu_cluster.cpus.icache.demandMshrMissRate::total     0.000530                       # mshr miss ratio for demand accesses (Ratio)
system.cpu_cluster.cpus.icache.overallMshrMissRate::cpu_cluster.cpus.inst     0.000530                       # mshr miss ratio for overall accesses (Ratio)
system.cpu_cluster.cpus.icache.overallMshrMissRate::total     0.000530                       # mshr miss ratio for overall accesses (Ratio)
system.cpu_cluster.cpus.icache.demandAvgMshrMissLatency::cpu_cluster.cpus.inst 56340.255591                       # average overall mshr miss latency ((Cycle/Count))
system.cpu_cluster.cpus.icache.demandAvgMshrMissLatency::total 56340.255591                       # average overall mshr miss latency ((Cycle/Count))
system.cpu_cluster.cpus.icache.overallAvgMshrMissLatency::cpu_cluster.cpus.inst 56340.255591                       # average overall mshr miss latency ((Cycle/Count))
system.cpu_cluster.cpus.icache.overallAvgMshrMissLatency::total 56340.255591                       # average overall mshr miss latency ((Cycle/Count))
system.cpu_cluster.cpus.icache.replacements           58                       # number of replacements (Count)
system.cpu_cluster.cpus.icache.ReadReq.hits::cpu_cluster.cpus.inst       590639                       # number of ReadReq hits (Count)
system.cpu_cluster.cpus.icache.ReadReq.hits::total       590639                       # number of ReadReq hits (Count)
system.cpu_cluster.cpus.icache.ReadReq.misses::cpu_cluster.cpus.inst          313                       # number of ReadReq misses (Count)
system.cpu_cluster.cpus.icache.ReadReq.misses::total          313                       # number of ReadReq misses (Count)
system.cpu_cluster.cpus.icache.ReadReq.missLatency::cpu_cluster.cpus.inst     17712500                       # number of ReadReq miss ticks (Tick)
system.cpu_cluster.cpus.icache.ReadReq.missLatency::total     17712500                       # number of ReadReq miss ticks (Tick)
system.cpu_cluster.cpus.icache.ReadReq.accesses::cpu_cluster.cpus.inst       590952                       # number of ReadReq accesses(hits+misses) (Count)
system.cpu_cluster.cpus.icache.ReadReq.accesses::total       590952                       # number of ReadReq accesses(hits+misses) (Count)
system.cpu_cluster.cpus.icache.ReadReq.missRate::cpu_cluster.cpus.inst     0.000530                       # miss rate for ReadReq accesses (Ratio)
system.cpu_cluster.cpus.icache.ReadReq.missRate::total     0.000530                       # miss rate for ReadReq accesses (Ratio)
system.cpu_cluster.cpus.icache.ReadReq.avgMissLatency::cpu_cluster.cpus.inst 56589.456869                       # average ReadReq miss latency ((Tick/Count))
system.cpu_cluster.cpus.icache.ReadReq.avgMissLatency::total 56589.456869                       # average ReadReq miss latency ((Tick/Count))
system.cpu_cluster.cpus.icache.ReadReq.mshrMisses::cpu_cluster.cpus.inst          313                       # number of ReadReq MSHR misses (Count)
system.cpu_cluster.cpus.icache.ReadReq.mshrMisses::total          313                       # number of ReadReq MSHR misses (Count)
system.cpu_cluster.cpus.icache.ReadReq.mshrMissLatency::cpu_cluster.cpus.inst     17634500                       # number of ReadReq MSHR miss ticks (Tick)
system.cpu_cluster.cpus.icache.ReadReq.mshrMissLatency::total     17634500                       # number of ReadReq MSHR miss ticks (Tick)
system.cpu_cluster.cpus.icache.ReadReq.mshrMissRate::cpu_cluster.cpus.inst     0.000530                       # mshr miss rate for ReadReq accesses (Ratio)
system.cpu_cluster.cpus.icache.ReadReq.mshrMissRate::total     0.000530                       # mshr miss rate for ReadReq accesses (Ratio)
system.cpu_cluster.cpus.icache.ReadReq.avgMshrMissLatency::cpu_cluster.cpus.inst 56340.255591                       # average ReadReq mshr miss latency ((Tick/Count))
system.cpu_cluster.cpus.icache.ReadReq.avgMshrMissLatency::total 56340.255591                       # average ReadReq mshr miss latency ((Tick/Count))
system.cpu_cluster.cpus.icache.power_state.pwrStateResidencyTicks::UNDEFINED    620810500                       # Cumulative time (in ticks) in various power states (Tick)
system.cpu_cluster.cpus.icache.tags.tagsInUse   249.715684                       # Average ticks per tags in use ((Tick/Count))
system.cpu_cluster.cpus.icache.tags.totalRefs          356                       # Total number of references to valid blocks. (Count)
system.cpu_cluster.cpus.icache.tags.sampledRefs           58                       # Sample count of references to valid blocks. (Count)
system.cpu_cluster.cpus.icache.tags.avgRefs     6.137931                       # Average number of references to valid blocks. ((Count/Count))
system.cpu_cluster.cpus.icache.tags.warmupTick        78500                       # The tick when the warmup percentage was hit. (Tick)
system.cpu_cluster.cpus.icache.tags.occupancies::cpu_cluster.cpus.inst   249.715684                       # Average occupied blocks per tick, per requestor ((Count/Tick))
system.cpu_cluster.cpus.icache.tags.avgOccs::cpu_cluster.cpus.inst     0.487726                       # Average percentage of cache occupancy ((Ratio/Tick))
system.cpu_cluster.cpus.icache.tags.avgOccs::total     0.487726                       # Average percentage of cache occupancy ((Ratio/Tick))
system.cpu_cluster.cpus.icache.tags.occupanciesTaskId::1024          254                       # Occupied blocks per task id (Count)
system.cpu_cluster.cpus.icache.tags.ageTaskId_1024::0            1                       # Occupied blocks per task id, per block age (Count)
system.cpu_cluster.cpus.icache.tags.ageTaskId_1024::2          253                       # Occupied blocks per task id, per block age (Count)
system.cpu_cluster.cpus.icache.tags.ratioOccsTaskId::1024     0.496094                       # Ratio of occupied blocks and all blocks, per task id (Ratio)
system.cpu_cluster.cpus.icache.tags.tagAccesses      1182216                       # Number of tag accesses (Count)
system.cpu_cluster.cpus.icache.tags.dataAccesses      1182216                       # Number of data accesses (Count)
system.cpu_cluster.cpus.icache.tags.power_state.pwrStateResidencyTicks::UNDEFINED    620810500                       # Cumulative time (in ticks) in various power states (Tick)
system.cpu_cluster.cpus.mmu.alignFaults             0                       # Number of MMU faults due to alignment restrictions (Count)
system.cpu_cluster.cpus.mmu.prefetchFaults            0                       # Number of MMU faults due to prefetch (Count)
system.cpu_cluster.cpus.mmu.domainFaults            0                       # Number of MMU faults due to domain restrictions (Count)
system.cpu_cluster.cpus.mmu.permsFaults             0                       # Number of MMU faults due to permissions restrictions (Count)
system.cpu_cluster.cpus.mmu.dtb.readHits            0                       # Read hits (Count)
system.cpu_cluster.cpus.mmu.dtb.readMisses            0                       # Read misses (Count)
system.cpu_cluster.cpus.mmu.dtb.writeHits            0                       # Write hits (Count)
system.cpu_cluster.cpus.mmu.dtb.writeMisses            0                       # Write misses (Count)
system.cpu_cluster.cpus.mmu.dtb.inserts             0                       # Number of times an entry is inserted into the TLB (Count)
system.cpu_cluster.cpus.mmu.dtb.flushTlb            0                       # Number of times complete TLB was flushed (Count)
system.cpu_cluster.cpus.mmu.dtb.flushTlbMva            0                       # Number of times TLB was flushed by MVA (Count)
system.cpu_cluster.cpus.mmu.dtb.flushTlbMvaAsid            0                       # Number of times TLB was flushed by MVA & ASID (Count)
system.cpu_cluster.cpus.mmu.dtb.flushTlbAsid            0                       # Number of times TLB was flushed by ASID (Count)
system.cpu_cluster.cpus.mmu.dtb.flushedEntries            0                       # Number of entries that have been flushed from TLB (Count)
system.cpu_cluster.cpus.mmu.dtb.readAccesses            0                       # Read accesses (Count)
system.cpu_cluster.cpus.mmu.dtb.writeAccesses            0                       # Write accesses (Count)
system.cpu_cluster.cpus.mmu.dtb.hits                0                       # Total TLB (inst and data) hits (Count)
system.cpu_cluster.cpus.mmu.dtb.misses              0                       # Total TLB (inst and data) misses (Count)
system.cpu_cluster.cpus.mmu.dtb.accesses            0                       # Total TLB (inst and data) accesses (Count)
system.cpu_cluster.cpus.mmu.dtb_walker.walks            0                       # Table walker walks requested (Count)
system.cpu_cluster.cpus.mmu.dtb_walker.requestOrigin_Requested::Data            0                       # Table walker requests started/completed, data/inst (Count)
system.cpu_cluster.cpus.mmu.dtb_walker.requestOrigin_Requested::Inst            0                       # Table walker requests started/completed, data/inst (Count)
system.cpu_cluster.cpus.mmu.dtb_walker.requestOrigin_Requested::total            0                       # Table walker requests started/completed, data/inst (Count)
system.cpu_cluster.cpus.mmu.dtb_walker.requestOrigin_Completed::Data            0                       # Table walker requests started/completed, data/inst (Count)
system.cpu_cluster.cpus.mmu.dtb_walker.requestOrigin_Completed::Inst            0                       # Table walker requests started/completed, data/inst (Count)
system.cpu_cluster.cpus.mmu.dtb_walker.requestOrigin_Completed::total            0                       # Table walker requests started/completed, data/inst (Count)
system.cpu_cluster.cpus.mmu.dtb_walker.requestOrigin::total            0                       # Table walker requests started/completed, data/inst (Count)
system.cpu_cluster.cpus.mmu.dtb_walker.power_state.pwrStateResidencyTicks::UNDEFINED    620810500                       # Cumulative time (in ticks) in various power states (Tick)
system.cpu_cluster.cpus.mmu.itb.instHits            0                       # Inst hits (Count)
system.cpu_cluster.cpus.mmu.itb.instMisses            0                       # Inst misses (Count)
system.cpu_cluster.cpus.mmu.itb.inserts             0                       # Number of times an entry is inserted into the TLB (Count)
system.cpu_cluster.cpus.mmu.itb.flushTlb            0                       # Number of times complete TLB was flushed (Count)
system.cpu_cluster.cpus.mmu.itb.flushTlbMva            0                       # Number of times TLB was flushed by MVA (Count)
system.cpu_cluster.cpus.mmu.itb.flushTlbMvaAsid            0                       # Number of times TLB was flushed by MVA & ASID (Count)
system.cpu_cluster.cpus.mmu.itb.flushTlbAsid            0                       # Number of times TLB was flushed by ASID (Count)
system.cpu_cluster.cpus.mmu.itb.flushedEntries            0                       # Number of entries that have been flushed from TLB (Count)
system.cpu_cluster.cpus.mmu.itb.instAccesses            0                       # Inst accesses (Count)
system.cpu_cluster.cpus.mmu.itb.hits                0                       # Total TLB (inst and data) hits (Count)
system.cpu_cluster.cpus.mmu.itb.misses              0                       # Total TLB (inst and data) misses (Count)
system.cpu_cluster.cpus.mmu.itb.accesses            0                       # Total TLB (inst and data) accesses (Count)
system.cpu_cluster.cpus.mmu.itb_walker.walks            0                       # Table walker walks requested (Count)
system.cpu_cluster.cpus.mmu.itb_walker.requestOrigin_Requested::Data            0                       # Table walker requests started/completed, data/inst (Count)
system.cpu_cluster.cpus.mmu.itb_walker.requestOrigin_Requested::Inst            0                       # Table walker requests started/completed, data/inst (Count)
system.cpu_cluster.cpus.mmu.itb_walker.requestOrigin_Requested::total            0                       # Table walker requests started/completed, data/inst (Count)
system.cpu_cluster.cpus.mmu.itb_walker.requestOrigin_Completed::Data            0                       # Table walker requests started/completed, data/inst (Count)
system.cpu_cluster.cpus.mmu.itb_walker.requestOrigin_Completed::Inst            0                       # Table walker requests started/completed, data/inst (Count)
system.cpu_cluster.cpus.mmu.itb_walker.requestOrigin_Completed::total            0                       # Table walker requests started/completed, data/inst (Count)
system.cpu_cluster.cpus.mmu.itb_walker.requestOrigin::total            0                       # Table walker requests started/completed, data/inst (Count)
system.cpu_cluster.cpus.mmu.itb_walker.power_state.pwrStateResidencyTicks::UNDEFINED    620810500                       # Cumulative time (in ticks) in various power states (Tick)
system.cpu_cluster.cpus.mmu.l2_shared.instHits            0                       # Inst hits (Count)
system.cpu_cluster.cpus.mmu.l2_shared.instMisses            0                       # Inst misses (Count)
system.cpu_cluster.cpus.mmu.l2_shared.inserts            0                       # Number of times an entry is inserted into the TLB (Count)
system.cpu_cluster.cpus.mmu.l2_shared.flushTlb            0                       # Number of times complete TLB was flushed (Count)
system.cpu_cluster.cpus.mmu.l2_shared.flushTlbMva            0                       # Number of times TLB was flushed by MVA (Count)
system.cpu_cluster.cpus.mmu.l2_shared.flushTlbMvaAsid            0                       # Number of times TLB was flushed by MVA & ASID (Count)
system.cpu_cluster.cpus.mmu.l2_shared.flushTlbAsid            0                       # Number of times TLB was flushed by ASID (Count)
system.cpu_cluster.cpus.mmu.l2_shared.flushedEntries            0                       # Number of entries that have been flushed from TLB (Count)
system.cpu_cluster.cpus.mmu.l2_shared.instAccesses            0                       # Inst accesses (Count)
system.cpu_cluster.cpus.mmu.l2_shared.hits            0                       # Total TLB (inst and data) hits (Count)
system.cpu_cluster.cpus.mmu.l2_shared.misses            0                       # Total TLB (inst and data) misses (Count)
system.cpu_cluster.cpus.mmu.l2_shared.accesses            0                       # Total TLB (inst and data) accesses (Count)
system.cpu_cluster.cpus.mmu.stage2_dtb.readHits            0                       # Read hits (Count)
system.cpu_cluster.cpus.mmu.stage2_dtb.readMisses            0                       # Read misses (Count)
system.cpu_cluster.cpus.mmu.stage2_dtb.writeHits            0                       # Write hits (Count)
system.cpu_cluster.cpus.mmu.stage2_dtb.writeMisses            0                       # Write misses (Count)
system.cpu_cluster.cpus.mmu.stage2_dtb.inserts            0                       # Number of times an entry is inserted into the TLB (Count)
system.cpu_cluster.cpus.mmu.stage2_dtb.flushTlb            0                       # Number of times complete TLB was flushed (Count)
system.cpu_cluster.cpus.mmu.stage2_dtb.flushTlbMva            0                       # Number of times TLB was flushed by MVA (Count)
system.cpu_cluster.cpus.mmu.stage2_dtb.flushTlbMvaAsid            0                       # Number of times TLB was flushed by MVA & ASID (Count)
system.cpu_cluster.cpus.mmu.stage2_dtb.flushTlbAsid            0                       # Number of times TLB was flushed by ASID (Count)
system.cpu_cluster.cpus.mmu.stage2_dtb.flushedEntries            0                       # Number of entries that have been flushed from TLB (Count)
system.cpu_cluster.cpus.mmu.stage2_dtb.readAccesses            0                       # Read accesses (Count)
system.cpu_cluster.cpus.mmu.stage2_dtb.writeAccesses            0                       # Write accesses (Count)
system.cpu_cluster.cpus.mmu.stage2_dtb.hits            0                       # Total TLB (inst and data) hits (Count)
system.cpu_cluster.cpus.mmu.stage2_dtb.misses            0                       # Total TLB (inst and data) misses (Count)
system.cpu_cluster.cpus.mmu.stage2_dtb.accesses            0                       # Total TLB (inst and data) accesses (Count)
system.cpu_cluster.cpus.mmu.stage2_dtb_walker.walks            0                       # Table walker walks requested (Count)
system.cpu_cluster.cpus.mmu.stage2_dtb_walker.requestOrigin_Requested::Data            0                       # Table walker requests started/completed, data/inst (Count)
system.cpu_cluster.cpus.mmu.stage2_dtb_walker.requestOrigin_Requested::Inst            0                       # Table walker requests started/completed, data/inst (Count)
system.cpu_cluster.cpus.mmu.stage2_dtb_walker.requestOrigin_Requested::total            0                       # Table walker requests started/completed, data/inst (Count)
system.cpu_cluster.cpus.mmu.stage2_dtb_walker.requestOrigin_Completed::Data            0                       # Table walker requests started/completed, data/inst (Count)
system.cpu_cluster.cpus.mmu.stage2_dtb_walker.requestOrigin_Completed::Inst            0                       # Table walker requests started/completed, data/inst (Count)
system.cpu_cluster.cpus.mmu.stage2_dtb_walker.requestOrigin_Completed::total            0                       # Table walker requests started/completed, data/inst (Count)
system.cpu_cluster.cpus.mmu.stage2_dtb_walker.requestOrigin::total            0                       # Table walker requests started/completed, data/inst (Count)
system.cpu_cluster.cpus.mmu.stage2_dtb_walker.power_state.pwrStateResidencyTicks::UNDEFINED    620810500                       # Cumulative time (in ticks) in various power states (Tick)
system.cpu_cluster.cpus.mmu.stage2_itb.instHits            0                       # Inst hits (Count)
system.cpu_cluster.cpus.mmu.stage2_itb.instMisses            0                       # Inst misses (Count)
system.cpu_cluster.cpus.mmu.stage2_itb.inserts            0                       # Number of times an entry is inserted into the TLB (Count)
system.cpu_cluster.cpus.mmu.stage2_itb.flushTlb            0                       # Number of times complete TLB was flushed (Count)
system.cpu_cluster.cpus.mmu.stage2_itb.flushTlbMva            0                       # Number of times TLB was flushed by MVA (Count)
system.cpu_cluster.cpus.mmu.stage2_itb.flushTlbMvaAsid            0                       # Number of times TLB was flushed by MVA & ASID (Count)
system.cpu_cluster.cpus.mmu.stage2_itb.flushTlbAsid            0                       # Number of times TLB was flushed by ASID (Count)
system.cpu_cluster.cpus.mmu.stage2_itb.flushedEntries            0                       # Number of entries that have been flushed from TLB (Count)
system.cpu_cluster.cpus.mmu.stage2_itb.instAccesses            0                       # Inst accesses (Count)
system.cpu_cluster.cpus.mmu.stage2_itb.hits            0                       # Total TLB (inst and data) hits (Count)
system.cpu_cluster.cpus.mmu.stage2_itb.misses            0                       # Total TLB (inst and data) misses (Count)
system.cpu_cluster.cpus.mmu.stage2_itb.accesses            0                       # Total TLB (inst and data) accesses (Count)
system.cpu_cluster.cpus.mmu.stage2_itb_walker.walks            0                       # Table walker walks requested (Count)
system.cpu_cluster.cpus.mmu.stage2_itb_walker.requestOrigin_Requested::Data            0                       # Table walker requests started/completed, data/inst (Count)
system.cpu_cluster.cpus.mmu.stage2_itb_walker.requestOrigin_Requested::Inst            0                       # Table walker requests started/completed, data/inst (Count)
system.cpu_cluster.cpus.mmu.stage2_itb_walker.requestOrigin_Requested::total            0                       # Table walker requests started/completed, data/inst (Count)
system.cpu_cluster.cpus.mmu.stage2_itb_walker.requestOrigin_Completed::Data            0                       # Table walker requests started/completed, data/inst (Count)
system.cpu_cluster.cpus.mmu.stage2_itb_walker.requestOrigin_Completed::Inst            0                       # Table walker requests started/completed, data/inst (Count)
system.cpu_cluster.cpus.mmu.stage2_itb_walker.requestOrigin_Completed::total            0                       # Table walker requests started/completed, data/inst (Count)
system.cpu_cluster.cpus.mmu.stage2_itb_walker.requestOrigin::total            0                       # Table walker requests started/completed, data/inst (Count)
system.cpu_cluster.cpus.mmu.stage2_itb_walker.power_state.pwrStateResidencyTicks::UNDEFINED    620810500                       # Cumulative time (in ticks) in various power states (Tick)
system.cpu_cluster.cpus.power_state.pwrStateResidencyTicks::ON    620810500                       # Cumulative time (in ticks) in various power states (Tick)
system.cpu_cluster.cpus.thread_0.numInsts      1927409                       # Number of Instructions committed (Count)
system.cpu_cluster.cpus.thread_0.numOps       2023771                       # Number of Ops committed (Count)
system.cpu_cluster.cpus.thread_0.numMemRefs            0                       # Number of Memory References (Count)
system.cpu_cluster.cpus.workload.numSyscalls            7                       # Number of system calls (Count)
system.cpu_cluster.l2.demandHits::cpu_cluster.cpus.inst           20                       # number of demand (read+write) hits (Count)
system.cpu_cluster.l2.demandHits::cpu_cluster.cpus.data            4                       # number of demand (read+write) hits (Count)
system.cpu_cluster.l2.demandHits::total            24                       # number of demand (read+write) hits (Count)
system.cpu_cluster.l2.overallHits::cpu_cluster.cpus.inst           20                       # number of overall hits (Count)
system.cpu_cluster.l2.overallHits::cpu_cluster.cpus.data            4                       # number of overall hits (Count)
system.cpu_cluster.l2.overallHits::total           24                       # number of overall hits (Count)
system.cpu_cluster.l2.demandMisses::cpu_cluster.cpus.inst          293                       # number of demand (read+write) misses (Count)
system.cpu_cluster.l2.demandMisses::cpu_cluster.cpus.data         2708                       # number of demand (read+write) misses (Count)
system.cpu_cluster.l2.demandMisses::total         3001                       # number of demand (read+write) misses (Count)
system.cpu_cluster.l2.overallMisses::cpu_cluster.cpus.inst          293                       # number of overall misses (Count)
system.cpu_cluster.l2.overallMisses::cpu_cluster.cpus.data         2708                       # number of overall misses (Count)
system.cpu_cluster.l2.overallMisses::total         3001                       # number of overall misses (Count)
system.cpu_cluster.l2.demandMissLatency::cpu_cluster.cpus.inst     17407250                       # number of demand (read+write) miss ticks (Tick)
system.cpu_cluster.l2.demandMissLatency::cpu_cluster.cpus.data    159427500                       # number of demand (read+write) miss ticks (Tick)
system.cpu_cluster.l2.demandMissLatency::total    176834750                       # number of demand (read+write) miss ticks (Tick)
system.cpu_cluster.l2.overallMissLatency::cpu_cluster.cpus.inst     17407250                       # number of overall miss ticks (Tick)
system.cpu_cluster.l2.overallMissLatency::cpu_cluster.cpus.data    159427500                       # number of overall miss ticks (Tick)
system.cpu_cluster.l2.overallMissLatency::total    176834750                       # number of overall miss ticks (Tick)
system.cpu_cluster.l2.demandAccesses::cpu_cluster.cpus.inst          313                       # number of demand (read+write) accesses (Count)
system.cpu_cluster.l2.demandAccesses::cpu_cluster.cpus.data         2712                       # number of demand (read+write) accesses (Count)
system.cpu_cluster.l2.demandAccesses::total         3025                       # number of demand (read+write) accesses (Count)
system.cpu_cluster.l2.overallAccesses::cpu_cluster.cpus.inst          313                       # number of overall (read+write) accesses (Count)
system.cpu_cluster.l2.overallAccesses::cpu_cluster.cpus.data         2712                       # number of overall (read+write) accesses (Count)
system.cpu_cluster.l2.overallAccesses::total         3025                       # number of overall (read+write) accesses (Count)
system.cpu_cluster.l2.demandMissRate::cpu_cluster.cpus.inst     0.936102                       # miss rate for demand accesses (Ratio)
system.cpu_cluster.l2.demandMissRate::cpu_cluster.cpus.data     0.998525                       # miss rate for demand accesses (Ratio)
system.cpu_cluster.l2.demandMissRate::total     0.992066                       # miss rate for demand accesses (Ratio)
system.cpu_cluster.l2.overallMissRate::cpu_cluster.cpus.inst     0.936102                       # miss rate for overall accesses (Ratio)
system.cpu_cluster.l2.overallMissRate::cpu_cluster.cpus.data     0.998525                       # miss rate for overall accesses (Ratio)
system.cpu_cluster.l2.overallMissRate::total     0.992066                       # miss rate for overall accesses (Ratio)
system.cpu_cluster.l2.demandAvgMissLatency::cpu_cluster.cpus.inst 59410.409556                       # average overall miss latency ((Cycle/Count))
system.cpu_cluster.l2.demandAvgMissLatency::cpu_cluster.cpus.data 58872.784343                       # average overall miss latency ((Cycle/Count))
system.cpu_cluster.l2.demandAvgMissLatency::total 58925.274908                       # average overall miss latency ((Cycle/Count))
system.cpu_cluster.l2.overallAvgMissLatency::cpu_cluster.cpus.inst 59410.409556                       # average overall miss latency ((Cycle/Count))
system.cpu_cluster.l2.overallAvgMissLatency::cpu_cluster.cpus.data 58872.784343                       # average overall miss latency ((Cycle/Count))
system.cpu_cluster.l2.overallAvgMissLatency::total 58925.274908                       # average overall miss latency ((Cycle/Count))
system.cpu_cluster.l2.blockedCycles::no_mshrs            0                       # number of cycles access was blocked (Cycle)
system.cpu_cluster.l2.blockedCycles::no_targets            0                       # number of cycles access was blocked (Cycle)
system.cpu_cluster.l2.blockedCauses::no_mshrs            0                       # number of times access was blocked (Count)
system.cpu_cluster.l2.blockedCauses::no_targets            0                       # number of times access was blocked (Count)
system.cpu_cluster.l2.avgBlocked::no_mshrs          nan                       # average number of cycles each access was blocked ((Cycle/Count))
system.cpu_cluster.l2.avgBlocked::no_targets          nan                       # average number of cycles each access was blocked ((Cycle/Count))
system.cpu_cluster.l2.demandMshrHits::cpu_cluster.cpus.inst            1                       # number of demand (read+write) MSHR hits (Count)
system.cpu_cluster.l2.demandMshrHits::cpu_cluster.cpus.data            2                       # number of demand (read+write) MSHR hits (Count)
system.cpu_cluster.l2.demandMshrHits::total            3                       # number of demand (read+write) MSHR hits (Count)
system.cpu_cluster.l2.overallMshrHits::cpu_cluster.cpus.inst            1                       # number of overall MSHR hits (Count)
system.cpu_cluster.l2.overallMshrHits::cpu_cluster.cpus.data            2                       # number of overall MSHR hits (Count)
system.cpu_cluster.l2.overallMshrHits::total            3                       # number of overall MSHR hits (Count)
system.cpu_cluster.l2.demandMshrMisses::cpu_cluster.cpus.inst          292                       # number of demand (read+write) MSHR misses (Count)
system.cpu_cluster.l2.demandMshrMisses::cpu_cluster.cpus.data         2706                       # number of demand (read+write) MSHR misses (Count)
system.cpu_cluster.l2.demandMshrMisses::total         2998                       # number of demand (read+write) MSHR misses (Count)
system.cpu_cluster.l2.overallMshrMisses::cpu_cluster.cpus.inst          292                       # number of overall MSHR misses (Count)
system.cpu_cluster.l2.overallMshrMisses::cpu_cluster.cpus.data         2706                       # number of overall MSHR misses (Count)
system.cpu_cluster.l2.overallMshrMisses::total         2998                       # number of overall MSHR misses (Count)
system.cpu_cluster.l2.demandMshrMissLatency::cpu_cluster.cpus.inst     17039750                       # number of demand (read+write) MSHR miss ticks (Tick)
system.cpu_cluster.l2.demandMshrMissLatency::cpu_cluster.cpus.data    155941250                       # number of demand (read+write) MSHR miss ticks (Tick)
system.cpu_cluster.l2.demandMshrMissLatency::total    172981000                       # number of demand (read+write) MSHR miss ticks (Tick)
system.cpu_cluster.l2.overallMshrMissLatency::cpu_cluster.cpus.inst     17039750                       # number of overall MSHR miss ticks (Tick)
system.cpu_cluster.l2.overallMshrMissLatency::cpu_cluster.cpus.data    155941250                       # number of overall MSHR miss ticks (Tick)
system.cpu_cluster.l2.overallMshrMissLatency::total    172981000                       # number of overall MSHR miss ticks (Tick)
system.cpu_cluster.l2.demandMshrMissRate::cpu_cluster.cpus.inst     0.932907                       # mshr miss ratio for demand accesses (Ratio)
system.cpu_cluster.l2.demandMshrMissRate::cpu_cluster.cpus.data     0.997788                       # mshr miss ratio for demand accesses (Ratio)
system.cpu_cluster.l2.demandMshrMissRate::total     0.991074                       # mshr miss ratio for demand accesses (Ratio)
system.cpu_cluster.l2.overallMshrMissRate::cpu_cluster.cpus.inst     0.932907                       # mshr miss ratio for overall accesses (Ratio)
system.cpu_cluster.l2.overallMshrMissRate::cpu_cluster.cpus.data     0.997788                       # mshr miss ratio for overall accesses (Ratio)
system.cpu_cluster.l2.overallMshrMissRate::total     0.991074                       # mshr miss ratio for overall accesses (Ratio)
system.cpu_cluster.l2.demandAvgMshrMissLatency::cpu_cluster.cpus.inst 58355.308219                       # average overall mshr miss latency ((Cycle/Count))
system.cpu_cluster.l2.demandAvgMshrMissLatency::cpu_cluster.cpus.data 57627.956393                       # average overall mshr miss latency ((Cycle/Count))
system.cpu_cluster.l2.demandAvgMshrMissLatency::total 57698.799199                       # average overall mshr miss latency ((Cycle/Count))
system.cpu_cluster.l2.overallAvgMshrMissLatency::cpu_cluster.cpus.inst 58355.308219                       # average overall mshr miss latency ((Cycle/Count))
system.cpu_cluster.l2.overallAvgMshrMissLatency::cpu_cluster.cpus.data 57627.956393                       # average overall mshr miss latency ((Cycle/Count))
system.cpu_cluster.l2.overallAvgMshrMissLatency::total 57698.799199                       # average overall mshr miss latency ((Cycle/Count))
system.cpu_cluster.l2.replacements                  0                       # number of replacements (Count)
system.cpu_cluster.l2.ReadExReq.hits::cpu_cluster.cpus.data            2                       # number of ReadExReq hits (Count)
system.cpu_cluster.l2.ReadExReq.hits::total            2                       # number of ReadExReq hits (Count)
system.cpu_cluster.l2.ReadExReq.misses::cpu_cluster.cpus.data         2654                       # number of ReadExReq misses (Count)
system.cpu_cluster.l2.ReadExReq.misses::total         2654                       # number of ReadExReq misses (Count)
system.cpu_cluster.l2.ReadExReq.missLatency::cpu_cluster.cpus.data    156091500                       # number of ReadExReq miss ticks (Tick)
system.cpu_cluster.l2.ReadExReq.missLatency::total    156091500                       # number of ReadExReq miss ticks (Tick)
system.cpu_cluster.l2.ReadExReq.accesses::cpu_cluster.cpus.data         2656                       # number of ReadExReq accesses(hits+misses) (Count)
system.cpu_cluster.l2.ReadExReq.accesses::total         2656                       # number of ReadExReq accesses(hits+misses) (Count)
system.cpu_cluster.l2.ReadExReq.missRate::cpu_cluster.cpus.data     0.999247                       # miss rate for ReadExReq accesses (Ratio)
system.cpu_cluster.l2.ReadExReq.missRate::total     0.999247                       # miss rate for ReadExReq accesses (Ratio)
system.cpu_cluster.l2.ReadExReq.avgMissLatency::cpu_cluster.cpus.data 58813.677468                       # average ReadExReq miss latency ((Tick/Count))
system.cpu_cluster.l2.ReadExReq.avgMissLatency::total 58813.677468                       # average ReadExReq miss latency ((Tick/Count))
system.cpu_cluster.l2.ReadExReq.mshrMisses::cpu_cluster.cpus.data         2654                       # number of ReadExReq MSHR misses (Count)
system.cpu_cluster.l2.ReadExReq.mshrMisses::total         2654                       # number of ReadExReq MSHR misses (Count)
system.cpu_cluster.l2.ReadExReq.mshrMissLatency::cpu_cluster.cpus.data    152774000                       # number of ReadExReq MSHR miss ticks (Tick)
system.cpu_cluster.l2.ReadExReq.mshrMissLatency::total    152774000                       # number of ReadExReq MSHR miss ticks (Tick)
system.cpu_cluster.l2.ReadExReq.mshrMissRate::cpu_cluster.cpus.data     0.999247                       # mshr miss rate for ReadExReq accesses (Ratio)
system.cpu_cluster.l2.ReadExReq.mshrMissRate::total     0.999247                       # mshr miss rate for ReadExReq accesses (Ratio)
system.cpu_cluster.l2.ReadExReq.avgMshrMissLatency::cpu_cluster.cpus.data 57563.677468                       # average ReadExReq mshr miss latency ((Tick/Count))
system.cpu_cluster.l2.ReadExReq.avgMshrMissLatency::total 57563.677468                       # average ReadExReq mshr miss latency ((Tick/Count))
system.cpu_cluster.l2.ReadSharedReq.hits::cpu_cluster.cpus.inst           20                       # number of ReadSharedReq hits (Count)
system.cpu_cluster.l2.ReadSharedReq.hits::cpu_cluster.cpus.data            2                       # number of ReadSharedReq hits (Count)
system.cpu_cluster.l2.ReadSharedReq.hits::total           22                       # number of ReadSharedReq hits (Count)
system.cpu_cluster.l2.ReadSharedReq.misses::cpu_cluster.cpus.inst          293                       # number of ReadSharedReq misses (Count)
system.cpu_cluster.l2.ReadSharedReq.misses::cpu_cluster.cpus.data           54                       # number of ReadSharedReq misses (Count)
system.cpu_cluster.l2.ReadSharedReq.misses::total          347                       # number of ReadSharedReq misses (Count)
system.cpu_cluster.l2.ReadSharedReq.missLatency::cpu_cluster.cpus.inst     17407250                       # number of ReadSharedReq miss ticks (Tick)
system.cpu_cluster.l2.ReadSharedReq.missLatency::cpu_cluster.cpus.data      3336000                       # number of ReadSharedReq miss ticks (Tick)
system.cpu_cluster.l2.ReadSharedReq.missLatency::total     20743250                       # number of ReadSharedReq miss ticks (Tick)
system.cpu_cluster.l2.ReadSharedReq.accesses::cpu_cluster.cpus.inst          313                       # number of ReadSharedReq accesses(hits+misses) (Count)
system.cpu_cluster.l2.ReadSharedReq.accesses::cpu_cluster.cpus.data           56                       # number of ReadSharedReq accesses(hits+misses) (Count)
system.cpu_cluster.l2.ReadSharedReq.accesses::total          369                       # number of ReadSharedReq accesses(hits+misses) (Count)
system.cpu_cluster.l2.ReadSharedReq.missRate::cpu_cluster.cpus.inst     0.936102                       # miss rate for ReadSharedReq accesses (Ratio)
system.cpu_cluster.l2.ReadSharedReq.missRate::cpu_cluster.cpus.data     0.964286                       # miss rate for ReadSharedReq accesses (Ratio)
system.cpu_cluster.l2.ReadSharedReq.missRate::total     0.940379                       # miss rate for ReadSharedReq accesses (Ratio)
system.cpu_cluster.l2.ReadSharedReq.avgMissLatency::cpu_cluster.cpus.inst 59410.409556                       # average ReadSharedReq miss latency ((Tick/Count))
system.cpu_cluster.l2.ReadSharedReq.avgMissLatency::cpu_cluster.cpus.data 61777.777778                       # average ReadSharedReq miss latency ((Tick/Count))
system.cpu_cluster.l2.ReadSharedReq.avgMissLatency::total 59778.818444                       # average ReadSharedReq miss latency ((Tick/Count))
system.cpu_cluster.l2.ReadSharedReq.mshrHits::cpu_cluster.cpus.inst            1                       # number of ReadSharedReq MSHR hits (Count)
system.cpu_cluster.l2.ReadSharedReq.mshrHits::cpu_cluster.cpus.data            2                       # number of ReadSharedReq MSHR hits (Count)
system.cpu_cluster.l2.ReadSharedReq.mshrHits::total            3                       # number of ReadSharedReq MSHR hits (Count)
system.cpu_cluster.l2.ReadSharedReq.mshrMisses::cpu_cluster.cpus.inst          292                       # number of ReadSharedReq MSHR misses (Count)
system.cpu_cluster.l2.ReadSharedReq.mshrMisses::cpu_cluster.cpus.data           52                       # number of ReadSharedReq MSHR misses (Count)
system.cpu_cluster.l2.ReadSharedReq.mshrMisses::total          344                       # number of ReadSharedReq MSHR misses (Count)
system.cpu_cluster.l2.ReadSharedReq.mshrMissLatency::cpu_cluster.cpus.inst     17039750                       # number of ReadSharedReq MSHR miss ticks (Tick)
system.cpu_cluster.l2.ReadSharedReq.mshrMissLatency::cpu_cluster.cpus.data      3167250                       # number of ReadSharedReq MSHR miss ticks (Tick)
system.cpu_cluster.l2.ReadSharedReq.mshrMissLatency::total     20207000                       # number of ReadSharedReq MSHR miss ticks (Tick)
system.cpu_cluster.l2.ReadSharedReq.mshrMissRate::cpu_cluster.cpus.inst     0.932907                       # mshr miss rate for ReadSharedReq accesses (Ratio)
system.cpu_cluster.l2.ReadSharedReq.mshrMissRate::cpu_cluster.cpus.data     0.928571                       # mshr miss rate for ReadSharedReq accesses (Ratio)
system.cpu_cluster.l2.ReadSharedReq.mshrMissRate::total     0.932249                       # mshr miss rate for ReadSharedReq accesses (Ratio)
system.cpu_cluster.l2.ReadSharedReq.avgMshrMissLatency::cpu_cluster.cpus.inst 58355.308219                       # average ReadSharedReq mshr miss latency ((Tick/Count))
system.cpu_cluster.l2.ReadSharedReq.avgMshrMissLatency::cpu_cluster.cpus.data 60908.653846                       # average ReadSharedReq mshr miss latency ((Tick/Count))
system.cpu_cluster.l2.ReadSharedReq.avgMshrMissLatency::total 58741.279070                       # average ReadSharedReq mshr miss latency ((Tick/Count))
system.cpu_cluster.l2.WritebackDirty.hits::writebacks         2162                       # number of WritebackDirty hits (Count)
system.cpu_cluster.l2.WritebackDirty.hits::total         2162                       # number of WritebackDirty hits (Count)
[...]
system.mem_ctrls1.dram.bytesInstRead::total         5632                       # Number of instructions bytes read from this memory (Byte)
system.mem_ctrls1.dram.numReads::cpu_cluster.cpus.inst           88                       # Number of read requests responded to by this memory (Count)
system.mem_ctrls1.dram.numReads::cpu_cluster.cpus.data           26                       # Number of read requests responded to by this memory (Count)
system.mem_ctrls1.dram.numReads::total            114                       # Number of read requests responded to by this memory (Count)
system.mem_ctrls1.dram.bwRead::cpu_cluster.cpus.inst    205919453                       # Total read bandwidth from this memory ((Byte/Second))
system.mem_ctrls1.dram.bwRead::cpu_cluster.cpus.data     60839838                       # Total read bandwidth from this memory ((Byte/Second))
system.mem_ctrls1.dram.bwRead::total        266759291                       # Total read bandwidth from this memory ((Byte/Second))
system.mem_ctrls1.dram.bwInstRead::cpu_cluster.cpus.inst    205919453                       # Instruction read bandwidth from this memory ((Byte/Second))
system.mem_ctrls1.dram.bwInstRead::total    205919453                       # Instruction read bandwidth from this memory ((Byte/Second))
system.mem_ctrls1.dram.bwTotal::cpu_cluster.cpus.inst    205919453                       # Total bandwidth to/from this memory ((Byte/Second))
system.mem_ctrls1.dram.bwTotal::cpu_cluster.cpus.data     60839838                       # Total bandwidth to/from this memory ((Byte/Second))
system.mem_ctrls1.dram.bwTotal::total       266759291                       # Total bandwidth to/from this memory ((Byte/Second))
system.mem_ctrls1.dram.readBursts                 114                       # Number of DRAM read bursts (Count)
system.mem_ctrls1.dram.writeBursts                  0                       # Number of DRAM write bursts (Count)
system.mem_ctrls1.dram.perBankRdBursts::0            4                       # Per bank write bursts (Count)
system.mem_ctrls1.dram.perBankRdBursts::1            0                       # Per bank write bursts (Count)
system.mem_ctrls1.dram.perBankRdBursts::2            9                       # Per bank write bursts (Count)
system.mem_ctrls1.dram.perBankRdBursts::3            3                       # Per bank write bursts (Count)
system.mem_ctrls1.dram.perBankRdBursts::4           14                       # Per bank write bursts (Count)
system.mem_ctrls1.dram.perBankRdBursts::5            5                       # Per bank write bursts (Count)
system.mem_ctrls1.dram.perBankRdBursts::6           24                       # Per bank write bursts (Count)
system.mem_ctrls1.dram.perBankRdBursts::7            9                       # Per bank write bursts (Count)
system.mem_ctrls1.dram.perBankRdBursts::8            0                       # Per bank write bursts (Count)
system.mem_ctrls1.dram.perBankRdBursts::9            6                       # Per bank write bursts (Count)
system.mem_ctrls1.dram.perBankRdBursts::10            2                       # Per bank write bursts (Count)
system.mem_ctrls1.dram.perBankRdBursts::11            0                       # Per bank write bursts (Count)
system.mem_ctrls1.dram.perBankRdBursts::12            1                       # Per bank write bursts (Count)
system.mem_ctrls1.dram.perBankRdBursts::13           18                       # Per bank write bursts (Count)
system.mem_ctrls1.dram.perBankRdBursts::14           18                       # Per bank write bursts (Count)
system.mem_ctrls1.dram.perBankRdBursts::15            1                       # Per bank write bursts (Count)
system.mem_ctrls1.dram.perBankWrBursts::0            0                       # Per bank write bursts (Count)
system.mem_ctrls1.dram.perBankWrBursts::1            0                       # Per bank write bursts (Count)
system.mem_ctrls1.dram.perBankWrBursts::2            0                       # Per bank write bursts (Count)
system.mem_ctrls1.dram.perBankWrBursts::3            0                       # Per bank write bursts (Count)
system.mem_ctrls1.dram.perBankWrBursts::4            0                       # Per bank write bursts (Count)
system.mem_ctrls1.dram.perBankWrBursts::5            0                       # Per bank write bursts (Count)
system.mem_ctrls1.dram.perBankWrBursts::6            0                       # Per bank write bursts (Count)
system.mem_ctrls1.dram.perBankWrBursts::7            0                       # Per bank write bursts (Count)
system.mem_ctrls1.dram.perBankWrBursts::8            0                       # Per bank write bursts (Count)
system.mem_ctrls1.dram.perBankWrBursts::9            0                       # Per bank write bursts (Count)
system.mem_ctrls1.dram.perBankWrBursts::10            0                       # Per bank write bursts (Count)
system.mem_ctrls1.dram.perBankWrBursts::11            0                       # Per bank write bursts (Count)
system.mem_ctrls1.dram.perBankWrBursts::12            0                       # Per bank write bursts (Count)
system.mem_ctrls1.dram.perBankWrBursts::13            0                       # Per bank write bursts (Count)
system.mem_ctrls1.dram.perBankWrBursts::14            0                       # Per bank write bursts (Count)
system.mem_ctrls1.dram.perBankWrBursts::15            0                       # Per bank write bursts (Count)
system.mem_ctrls1.dram.totQLat                 809500                       # Total ticks spent queuing (Tick)
system.mem_ctrls1.dram.totBusLat               570000                       # Total ticks spent in databus transfers (Tick)
system.mem_ctrls1.dram.totMemAccLat           2947000                       # Total ticks spent from burst creation until serviced by the DRAM (Tick)
system.mem_ctrls1.dram.avgQLat                7100.88                       # Average queueing delay per DRAM burst ((Tick/Count))
system.mem_ctrls1.dram.avgBusLat              5000.00                       # Average bus latency per DRAM burst ((Tick/Count))
system.mem_ctrls1.dram.avgMemAccLat          25850.88                       # Average memory access latency per DRAM burst ((Tick/Count))
system.mem_ctrls1.dram.readRowHits                 82                       # Number of row buffer hits during reads (Count)
system.mem_ctrls1.dram.writeRowHits                 0                       # Number of row buffer hits during writes (Count)
system.mem_ctrls1.dram.readRowHitRate           71.93                       # Row buffer hit rate for reads (Ratio)
system.mem_ctrls1.dram.writeRowHitRate            nan                       # Row buffer hit rate for writes (Ratio)
system.mem_ctrls1.dram.bytesPerActivate::samples           28                       # Bytes accessed per row activation (Byte)
system.mem_ctrls1.dram.bytesPerActivate::mean   230.857143                       # Bytes accessed per row activation (Byte)
system.mem_ctrls1.dram.bytesPerActivate::gmean   158.235378                       # Bytes accessed per row activation (Byte)
system.mem_ctrls1.dram.bytesPerActivate::stdev   233.915102                       # Bytes accessed per row activation (Byte)
system.mem_ctrls1.dram.bytesPerActivate::0-127            9     32.14%     32.14% # Bytes accessed per row activation (Byte)
system.mem_ctrls1.dram.bytesPerActivate::128-255            9     32.14%     64.29% # Bytes accessed per row activation (Byte)
system.mem_ctrls1.dram.bytesPerActivate::256-383            4     14.29%     78.57% # Bytes accessed per row activation (Byte)
system.mem_ctrls1.dram.bytesPerActivate::384-511            3     10.71%     89.29% # Bytes accessed per row activation (Byte)
system.mem_ctrls1.dram.bytesPerActivate::640-767            2      7.14%     96.43% # Bytes accessed per row activation (Byte)
system.mem_ctrls1.dram.bytesPerActivate::1024-1151            1      3.57%    100.00% # Bytes accessed per row activation (Byte)
system.mem_ctrls1.dram.bytesPerActivate::total           28                       # Bytes accessed per row activation (Byte)
system.mem_ctrls1.dram.bytesRead                 7296                       # Total bytes read (Byte)
system.mem_ctrls1.dram.bytesWritten                 0                       # Total bytes written (Byte)
system.mem_ctrls1.dram.avgRdBW             266.759291                       # Average DRAM read bandwidth in MiBytes/s ((Byte/Second))
system.mem_ctrls1.dram.avgWrBW                      0                       # Average DRAM write bandwidth in MiBytes/s ((Byte/Second))
system.mem_ctrls1.dram.peakBW                12800.00                       # Theoretical peak bandwidth in MiByte/s ((Byte/Second))
system.mem_ctrls1.dram.busUtil                   2.08                       # Data bus utilization in percentage (Ratio)
system.mem_ctrls1.dram.busUtilRead               2.08                       # Data bus utilization in percentage for reads (Ratio)
system.mem_ctrls1.dram.busUtilWrite              0.00                       # Data bus utilization in percentage for writes (Ratio)
system.mem_ctrls1.dram.pageHitRate              71.93                       # Row buffer hit rate, read and write combined (Ratio)
system.mem_ctrls1.dram.power_state.pwrStateResidencyTicks::UNDEFINED     27350500                       # Cumulative time (in ticks) in various power states (Tick)
system.mem_ctrls1.dram.rank0.actEnergy         128520                       # Energy for activate commands per rank (pJ) (Joule)
system.mem_ctrls1.dram.rank0.preEnergy          56925                       # Energy for precharge commands per rank (pJ) (Joule)
system.mem_ctrls1.dram.rank0.readEnergy        485520                       # Energy for read commands per rank (pJ) (Joule)
system.mem_ctrls1.dram.rank0.writeEnergy            0                       # Energy for write commands per rank (pJ) (Joule)
system.mem_ctrls1.dram.rank0.refreshEnergy 2458560.000000                       # Energy for refresh commands per rank (pJ) (Joule)
system.mem_ctrls1.dram.rank0.actBackEnergy      5437230                       # Energy for active background per rank (pJ) (Joule)
system.mem_ctrls1.dram.rank0.preBackEnergy      5923680                       # Energy for precharge background per rank (pJ) (Joule)
system.mem_ctrls1.dram.rank0.actPowerDownEnergy            0                       # Energy for active power-down per rank (pJ) (Joule)
system.mem_ctrls1.dram.rank0.prePowerDownEnergy            0                       # Energy for precharge power-down per rank (pJ) (Joule)
system.mem_ctrls1.dram.rank0.selfRefreshEnergy            0                       # Energy for self refresh per rank (pJ) (Joule)
system.mem_ctrls1.dram.rank0.totalEnergy     14490435                       # Total energy per rank (pJ) (Joule)
system.mem_ctrls1.dram.rank0.averagePower   529.805122                       # Core power per rank (mW) (Watt)
system.mem_ctrls1.dram.rank0.totalIdleTime            0                       # Total Idle time Per DRAM Rank (Tick)
system.mem_ctrls1.dram.rank0.pwrStateTime::IDLE     15343750                       # Time in different power states (Tick)
system.mem_ctrls1.dram.rank0.pwrStateTime::REF      1040000                       # Time in different power states (Tick)
system.mem_ctrls1.dram.rank0.pwrStateTime::SREF            0                       # Time in different power states (Tick)
system.mem_ctrls1.dram.rank0.pwrStateTime::PRE_PDN            0                       # Time in different power states (Tick)
system.mem_ctrls1.dram.rank0.pwrStateTime::ACT     10966750                       # Time in different power states (Tick)
system.mem_ctrls1.dram.rank0.pwrStateTime::ACT_PDN            0                       # Time in different power states (Tick)
system.mem_ctrls1.dram.rank1.actEnergy          99960                       # Energy for activate commands per rank (pJ) (Joule)
system.mem_ctrls1.dram.rank1.preEnergy          49335                       # Energy for precharge commands per rank (pJ) (Joule)
system.mem_ctrls1.dram.rank1.readEnergy        328440                       # Energy for read commands per rank (pJ) (Joule)
system.mem_ctrls1.dram.rank1.writeEnergy            0                       # Energy for write commands per rank (pJ) (Joule)
system.mem_ctrls1.dram.rank1.refreshEnergy 2458560.000000                       # Energy for refresh commands per rank (pJ) (Joule)
system.mem_ctrls1.dram.rank1.actBackEnergy      5680620                       # Energy for active background per rank (pJ) (Joule)
system.mem_ctrls1.dram.rank1.preBackEnergy      5718720                       # Energy for precharge background per rank (pJ) (Joule)
system.mem_ctrls1.dram.rank1.actPowerDownEnergy            0                       # Energy for active power-down per rank (pJ) (Joule)
system.mem_ctrls1.dram.rank1.prePowerDownEnergy            0                       # Energy for precharge power-down per rank (pJ) (Joule)
system.mem_ctrls1.dram.rank1.selfRefreshEnergy            0                       # Energy for self refresh per rank (pJ) (Joule)
system.mem_ctrls1.dram.rank1.totalEnergy     14335635                       # Total energy per rank (pJ) (Joule)
system.mem_ctrls1.dram.rank1.averagePower   524.145262                       # Core power per rank (mW) (Watt)
system.mem_ctrls1.dram.rank1.totalIdleTime            0                       # Total Idle time Per DRAM Rank (Tick)
system.mem_ctrls1.dram.rank1.pwrStateTime::IDLE     14810000                       # Time in different power states (Tick)
system.mem_ctrls1.dram.rank1.pwrStateTime::REF      1040000                       # Time in different power states (Tick)
system.mem_ctrls1.dram.rank1.pwrStateTime::SREF            0                       # Time in different power states (Tick)
system.mem_ctrls1.dram.rank1.pwrStateTime::PRE_PDN            0                       # Time in different power states (Tick)
system.mem_ctrls1.dram.rank1.pwrStateTime::ACT     11500500                       # Time in different power states (Tick)
system.mem_ctrls1.dram.rank1.pwrStateTime::ACT_PDN            0                       # Time in different power states (Tick)
system.mem_ctrls1.power_state.pwrStateResidencyTicks::UNDEFINED     27350500                       # Cumulative time (in ticks) in various power states (Tick)
system.membus.transDist::ReadResp                 206                       # Transaction distribution (Count)
system.membus.transDist::ReadExReq                 22                       # Transaction distribution (Count)
system.membus.transDist::ReadExResp                22                       # Transaction distribution (Count)
system.membus.transDist::ReadSharedReq            206                       # Transaction distribution (Count)
system.membus.pktCount_system.cpu_cluster.l2.mem_side_port::system.mem_ctrls0.port          228                       # Packet count per connected requestor and responder (Count)
system.membus.pktCount_system.cpu_cluster.l2.mem_side_port::system.mem_ctrls1.port          228                       # Packet count per connected requestor and responder (Count)
system.membus.pktCount_system.cpu_cluster.l2.mem_side_port::total          456                       # Packet count per connected requestor and responder (Count)
system.membus.pktCount::total                     456                       # Packet count per connected requestor and responder (Count)
system.membus.pktSize_system.cpu_cluster.l2.mem_side_port::system.mem_ctrls0.port         7296                       # Cumulative packet size per connected requestor and responder (Byte)
system.membus.pktSize_system.cpu_cluster.l2.mem_side_port::system.mem_ctrls1.port         7296                       # Cumulative packet size per connected requestor and responder (Byte)
system.membus.pktSize_system.cpu_cluster.l2.mem_side_port::total        14592                       # Cumulative packet size per connected requestor and responder (Byte)
system.membus.pktSize::total                    14592                       # Cumulative packet size per connected requestor and responder (Byte)
system.membus.snoops                                0                       # Total snoops (Count)
system.membus.snoopTraffic                          0                       # Total snoop traffic (Byte)
system.membus.snoopFanout::samples                228                       # Request fanout histogram (Count)
system.membus.snoopFanout::mean                     0                       # Request fanout histogram (Count)
system.membus.snoopFanout::stdev                    0                       # Request fanout histogram (Count)
system.membus.snoopFanout::underflows               0      0.00%      0.00% # Request fanout histogram (Count)
system.membus.snoopFanout::0                      228    100.00%    100.00% # Request fanout histogram (Count)
system.membus.snoopFanout::1                        0      0.00%    100.00% # Request fanout histogram (Count)
system.membus.snoopFanout::overflows                0      0.00%    100.00% # Request fanout histogram (Count)
system.membus.snoopFanout::min_value                0                       # Request fanout histogram (Count)
system.membus.snoopFanout::max_value                0                       # Request fanout histogram (Count)
system.membus.snoopFanout::total                  228                       # Request fanout histogram (Count)
system.membus.power_state.pwrStateResidencyTicks::UNDEFINED     27350500                       # Cumulative time (in ticks) in various power states (Tick)
system.membus.reqLayer0.occupancy              140500                       # Layer occupancy (ticks) (Tick)
system.membus.reqLayer0.utilization               0.0                       # Layer utilization (Ratio)
system.membus.reqLayer1.occupancy              135000                       # Layer occupancy (ticks) (Tick)
system.membus.reqLayer1.utilization               0.0                       # Layer utilization (Ratio)
system.membus.respLayer1.occupancy            1213000                       # Layer occupancy (ticks) (Tick)
system.membus.respLayer1.utilization              0.0                       # Layer utilization (Ratio)
system.membus.snoop_filter.totRequests            228                       # Total number of requests made to the snoop filter. (Count)
system.membus.snoop_filter.hitSingleRequests            0                       # Number of requests hitting in the snoop filter with a single holder of the requested data. (Count)
system.membus.snoop_filter.hitMultiRequests            0                       # Number of requests hitting in the snoop filter with multiple (>1) holders of the requested data. (Count)
system.membus.snoop_filter.totSnoops                0                       # Total number of snoops made to the snoop filter. (Count)
system.membus.snoop_filter.hitSingleSnoops            0                       # Number of snoops hitting in the snoop filter with a single holder of the requested data. (Count)
system.membus.snoop_filter.hitMultiSnoops            0                       # Number of snoops hitting in the snoop filter with multiple (>1) holders of the requested data. (Count)
system.voltage_domain.voltage                3.300000                       # Voltage in Volts (Volt)
system.workload.inst.arm                            0                       # number of arm instructions executed (Count)
system.workload.inst.quiesce                        0                       # number of quiesce instructions executed (Count)
system.cpu_cluster.cpus.idleCycles              45058                       # Total number of cycles that the object has spent stopped (Unspecified)
system.cpu_cluster.cpus.tickCycles              64344                       # Number of cycles that the object actually ticked (Unspecified)

---------- End Simulation Statistics   ----------
