
---------- Begin Simulation Statistics ----------
simSeconds                                   0.001987                       # Number of seconds simulated (Second)
simTicks                                   1986576000                       # Number of ticks simulated (Tick)
finalTick                                  1986576000                       # Number of ticks from beginning of simulation (restored from checkpoints and never reset) (Tick)
simFreq                                  1000000000000                       # The number of ticks per simulated second ((Tick/Second))
hostSeconds                                     26.39                       # Real time elapsed on the host (Second)
hostTickRate                                 75287785                       # The number of ticks simulated per host second (ticks/s) ((Tick/Second))
hostMemory                                     662908                       # Number of bytes of host memory used (Byte)
simInsts                                      8104168                       # Number of instructions simulated (Count)
simOps                                       14470625                       # Number of ops (including micro ops) simulated (Count)
hostInstRate                                   307133                       # Simulator instruction rate (inst/s) ((Count/Second))
hostOpRate                                     548409                       # Simulator op (including micro ops) rate (op/s) ((Count/Second))
system.clk_domain.clock                           500                       # Clock period in ticks (Tick)
system.cpu.numCycles                          3973153                       # Number of cpu cycles simulated (Cycle)
system.cpu.numWorkItemsStarted                      0                       # Number of work items this cpu started (Count)
system.cpu.numWorkItemsCompleted                    0                       # Number of work items this cpu completed (Count)
system.cpu.instsAdded                        14488414                       # Number of instructions added to the IQ (excludes non-spec) (Count)
system.cpu.nonSpecInstsAdded                        5                       # Number of non-speculative instructions added to the IQ (Count)
system.cpu.instsIssued                       14496154                       # Number of instructions issued (Count)
system.cpu.squashedInstsIssued                    605                       # Number of squashed instructions issued (Count)
system.cpu.squashedInstsExamined                17788                       # Number of squashed instructions iterated over during squash; mainly for profiling (Count)
system.cpu.squashedOperandsExamined             18803                       # Number of squashed operands that are examined and possibly removed from graph (Count)
system.cpu.squashedNonSpecRemoved                   5                       # Number of squashed non-spec instructions that were removed (Count)
system.cpu.numIssuedDist::samples             3940099                       # Number of insts issued each cycle (Count)
system.cpu.numIssuedDist::mean               3.679134                       # Number of insts issued each cycle (Count)
system.cpu.numIssuedDist::stdev              2.729566                       # Number of insts issued each cycle (Count)
system.cpu.numIssuedDist::underflows                0      0.00%      0.00% # Number of insts issued each cycle (Count)
system.cpu.numIssuedDist::0                    355110      9.01%      9.01% # Number of insts issued each cycle (Count)
system.cpu.numIssuedDist::1                   1102001     27.97%     36.98% # Number of insts issued each cycle (Count)
system.cpu.numIssuedDist::2                    329947      8.37%     45.36% # Number of insts issued each cycle (Count)
system.cpu.numIssuedDist::3                    204966      5.20%     50.56% # Number of insts issued each cycle (Count)
system.cpu.numIssuedDist::4                    272930      6.93%     57.48% # Number of insts issued each cycle (Count)
system.cpu.numIssuedDist::5                    213940      5.43%     62.91% # Number of insts issued each cycle (Count)
system.cpu.numIssuedDist::6                    582815     14.79%     77.71% # Number of insts issued each cycle (Count)
system.cpu.numIssuedDist::7                    566069     14.37%     92.07% # Number of insts issued each cycle (Count)
system.cpu.numIssuedDist::8                    312321      7.93%    100.00% # Number of insts issued each cycle (Count)
system.cpu.numIssuedDist::overflows                 0      0.00%    100.00% # Number of insts issued each cycle (Count)
system.cpu.numIssuedDist::min_value                 0                       # Number of insts issued each cycle (Count)
system.cpu.numIssuedDist::max_value                 8                       # Number of insts issued each cycle (Count)
system.cpu.numIssuedDist::total               3940099                       # Number of insts issued each cycle (Count)
system.cpu.statFuBusy::No_OpClass                   0      0.00%      0.00% # attempts to use FU when none available (Count)
system.cpu.statFuBusy::IntAlu                     248      0.10%      0.10% # attempts to use FU when none available (Count)
system.cpu.statFuBusy::IntMult                      0      0.00%      0.10% # attempts to use FU when none available (Count)
system.cpu.statFuBusy::IntDiv                       0      0.00%      0.10% # attempts to use FU when none available (Count)
system.cpu.statFuBusy::FloatAdd                 82886     32.08%     32.17% # attempts to use FU when none available (Count)
system.cpu.statFuBusy::FloatCmp                     0      0.00%     32.17% # attempts to use FU when none available (Count)
system.cpu.statFuBusy::FloatCvt                     0      0.00%     32.17% # attempts to use FU when none available (Count)
system.cpu.statFuBusy::FloatMult                    0      0.00%     32.17% # attempts to use FU when none available (Count)
system.cpu.statFuBusy::FloatMultAcc                 0      0.00%     32.17% # attempts to use FU when none available (Count)
system.cpu.statFuBusy::FloatDiv                     0      0.00%     32.17% # attempts to use FU when none available (Count)
system.cpu.statFuBusy::FloatMisc                    0      0.00%     32.17% # attempts to use FU when none available (Count)
system.cpu.statFuBusy::FloatSqrt                    0      0.00%     32.17% # attempts to use FU when none available (Count)
system.cpu.statFuBusy::SimdAdd                      0      0.00%     32.17% # attempts to use FU when none available (Count)
system.cpu.statFuBusy::SimdAddAcc                   0      0.00%     32.17% # attempts to use FU when none available (Count)
system.cpu.statFuBusy::SimdAlu                     13      0.01%     32.18% # attempts to use FU when none available (Count)
system.cpu.statFuBusy::SimdCmp                      0      0.00%     32.18% # attempts to use FU when none available (Count)
system.cpu.statFuBusy::SimdCvt                      1      0.00%     32.18% # attempts to use FU when none available (Count)
system.cpu.statFuBusy::SimdMisc                 34233     13.25%     45.43% # attempts to use FU when none available (Count)
system.cpu.statFuBusy::SimdMult                     0      0.00%     45.43% # attempts to use FU when none available (Count)
system.cpu.statFuBusy::SimdMultAcc                  0      0.00%     45.43% # attempts to use FU when none available (Count)
system.cpu.statFuBusy::SimdShift                    0      0.00%     45.43% # attempts to use FU when none available (Count)
system.cpu.statFuBusy::SimdShiftAcc                 0      0.00%     45.43% # attempts to use FU when none available (Count)
system.cpu.statFuBusy::SimdDiv                      0      0.00%     45.43% # attempts to use FU when none available (Count)
system.cpu.statFuBusy::SimdSqrt                     0      0.00%     45.43% # attempts to use FU when none available (Count)
system.cpu.statFuBusy::SimdFloatAdd             34453     13.33%     58.76% # attempts to use FU when none available (Count)
system.cpu.statFuBusy::SimdFloatAlu                 0      0.00%     58.76% # attempts to use FU when none available (Count)
system.cpu.statFuBusy::SimdFloatCmp                 0      0.00%     58.76% # attempts to use FU when none available (Count)
system.cpu.statFuBusy::SimdFloatCvt                 0      0.00%     58.76% # attempts to use FU when none available (Count)
system.cpu.statFuBusy::SimdFloatDiv                 0      0.00%     58.76% # attempts to use FU when none available (Count)
system.cpu.statFuBusy::SimdFloatMisc                0      0.00%     58.76% # attempts to use FU when none available (Count)
system.cpu.statFuBusy::SimdFloatMult           104416     40.41%     99.17% # attempts to use FU when none available (Count)
system.cpu.statFuBusy::SimdFloatMultAcc             0      0.00%     99.17% # attempts to use FU when none available (Count)
system.cpu.statFuBusy::SimdFloatSqrt                0      0.00%     99.17% # attempts to use FU when none available (Count)
system.cpu.statFuBusy::SimdReduceAdd                0      0.00%     99.17% # attempts to use FU when none available (Count)
system.cpu.statFuBusy::SimdReduceAlu                0      0.00%     99.17% # attempts to use FU when none available (Count)
system.cpu.statFuBusy::SimdReduceCmp                0      0.00%     99.17% # attempts to use FU when none available (Count)
system.cpu.statFuBusy::SimdFloatReduceAdd            0      0.00%     99.17% # attempts to use FU when none available (Count)
system.cpu.statFuBusy::SimdFloatReduceCmp            0      0.00%     99.17% # attempts to use FU when none available (Count)
system.cpu.statFuBusy::SimdAes                      0      0.00%     99.17% # attempts to use FU when none available (Count)
system.cpu.statFuBusy::SimdAesMix                   0      0.00%     99.17% # attempts to use FU when none available (Count)
system.cpu.statFuBusy::SimdSha1Hash                 0      0.00%     99.17% # attempts to use FU when none available (Count)
system.cpu.statFuBusy::SimdSha1Hash2                0      0.00%     99.17% # attempts to use FU when none available (Count)
system.cpu.statFuBusy::SimdSha256Hash               0      0.00%     99.17% # attempts to use FU when none available (Count)
system.cpu.statFuBusy::SimdSha256Hash2              0      0.00%     99.17% # attempts to use FU when none available (Count)
system.cpu.statFuBusy::SimdShaSigma2                0      0.00%     99.17% # attempts to use FU when none available (Count)
system.cpu.statFuBusy::SimdShaSigma3                0      0.00%     99.17% # attempts to use FU when none available (Count)
system.cpu.statFuBusy::SimdPredAlu                  0      0.00%     99.17% # attempts to use FU when none available (Count)
system.cpu.statFuBusy::MemRead                     32      0.01%     99.18% # attempts to use FU when none available (Count)
system.cpu.statFuBusy::MemWrite                    20      0.01%     99.19% # attempts to use FU when none available (Count)
system.cpu.statFuBusy::FloatMemRead              2082      0.81%    100.00% # attempts to use FU when none available (Count)
system.cpu.statFuBusy::FloatMemWrite                9      0.00%    100.00% # attempts to use FU when none available (Count)
system.cpu.statFuBusy::IprAccess                    0      0.00%    100.00% # attempts to use FU when none available (Count)
system.cpu.statFuBusy::InstPrefetch                 0      0.00%    100.00% # attempts to use FU when none available (Count)
system.cpu.statIssuedInstType_0::No_OpClass          964      0.01%      0.01% # Number of instructions issued per FU type, per thread (Count)
system.cpu.statIssuedInstType_0::IntAlu       2547074     17.57%     17.58% # Number of instructions issued per FU type, per thread (Count)
system.cpu.statIssuedInstType_0::IntMult            5      0.00%     17.58% # Number of instructions issued per FU type, per thread (Count)
system.cpu.statIssuedInstType_0::IntDiv            25      0.00%     17.58% # Number of instructions issued per FU type, per thread (Count)
system.cpu.statIssuedInstType_0::FloatAdd      4720915     32.57%     50.14% # Number of instructions issued per FU type, per thread (Count)
system.cpu.statIssuedInstType_0::FloatCmp            0      0.00%     50.14% # Number of instructions issued per FU type, per thread (Count)
system.cpu.statIssuedInstType_0::FloatCvt            0      0.00%     50.14% # Number of instructions issued per FU type, per thread (Count)
system.cpu.statIssuedInstType_0::FloatMult            0      0.00%     50.14% # Number of instructions issued per FU type, per thread (Count)
system.cpu.statIssuedInstType_0::FloatMultAcc            0      0.00%     50.14% # Number of instructions issued per FU type, per thread (Count)
system.cpu.statIssuedInstType_0::FloatDiv            0      0.00%     50.14% # Number of instructions issued per FU type, per thread (Count)
system.cpu.statIssuedInstType_0::FloatMisc            0      0.00%     50.14% # Number of instructions issued per FU type, per thread (Count)
system.cpu.statIssuedInstType_0::FloatSqrt            0      0.00%     50.14% # Number of instructions issued per FU type, per thread (Count)
system.cpu.statIssuedInstType_0::SimdAdd            0      0.00%     50.14% # Number of instructions issued per FU type, per thread (Count)
system.cpu.statIssuedInstType_0::SimdAddAcc            0      0.00%     50.14% # Number of instructions issued per FU type, per thread (Count)
system.cpu.statIssuedInstType_0::SimdAlu          169      0.00%     50.15% # Number of instructions issued per FU type, per thread (Count)
system.cpu.statIssuedInstType_0::SimdCmp            0      0.00%     50.15% # Number of instructions issued per FU type, per thread (Count)
system.cpu.statIssuedInstType_0::SimdCvt           48      0.00%     50.15% # Number of instructions issued per FU type, per thread (Count)
system.cpu.statIssuedInstType_0::SimdMisc       262368      1.81%     51.96% # Number of instructions issued per FU type, per thread (Count)
system.cpu.statIssuedInstType_0::SimdMult            0      0.00%     51.96% # Number of instructions issued per FU type, per thread (Count)
system.cpu.statIssuedInstType_0::SimdMultAcc            0      0.00%     51.96% # Number of instructions issued per FU type, per thread (Count)
system.cpu.statIssuedInstType_0::SimdShift            0      0.00%     51.96% # Number of instructions issued per FU type, per thread (Count)
system.cpu.statIssuedInstType_0::SimdShiftAcc            0      0.00%     51.96% # Number of instructions issued per FU type, per thread (Count)
system.cpu.statIssuedInstType_0::SimdDiv            0      0.00%     51.96% # Number of instructions issued per FU type, per thread (Count)
system.cpu.statIssuedInstType_0::SimdSqrt            0      0.00%     51.96% # Number of instructions issued per FU type, per thread (Count)
system.cpu.statIssuedInstType_0::SimdFloatAdd      2097152     14.47%     66.42% # Number of instructions issued per FU type, per thread (Count)
system.cpu.statIssuedInstType_0::SimdFloatAlu            0      0.00%     66.42% # Number of instructions issued per FU type, per thread (Count)
system.cpu.statIssuedInstType_0::SimdFloatCmp            0      0.00%     66.42% # Number of instructions issued per FU type, per thread (Count)
system.cpu.statIssuedInstType_0::SimdFloatCvt            1      0.00%     66.42% # Number of instructions issued per FU type, per thread (Count)
system.cpu.statIssuedInstType_0::SimdFloatDiv            0      0.00%     66.42% # Number of instructions issued per FU type, per thread (Count)
system.cpu.statIssuedInstType_0::SimdFloatMisc            0      0.00%     66.42% # Number of instructions issued per FU type, per thread (Count)
system.cpu.statIssuedInstType_0::SimdFloatMult      2097152     14.47%     80.89% # Number of instructions issued per FU type, per thread (Count)
system.cpu.statIssuedInstType_0::SimdFloatMultAcc            0      0.00%     80.89% # Number of instructions issued per FU type, per thread (Count)
system.cpu.statIssuedInstType_0::SimdFloatSqrt            0      0.00%     80.89% # Number of instructions issued per FU type, per thread (Count)
system.cpu.statIssuedInstType_0::SimdReduceAdd            0      0.00%     80.89% # Number of instructions issued per FU type, per thread (Count)
system.cpu.statIssuedInstType_0::SimdReduceAlu            0      0.00%     80.89% # Number of instructions issued per FU type, per thread (Count)
system.cpu.statIssuedInstType_0::SimdReduceCmp            0      0.00%     80.89% # Number of instructions issued per FU type, per thread (Count)
system.cpu.statIssuedInstType_0::SimdFloatReduceAdd            0      0.00%     80.89% # Number of instructions issued per FU type, per thread (Count)
system.cpu.statIssuedInstType_0::SimdFloatReduceCmp            0      0.00%     80.89% # Number of instructions issued per FU type, per thread (Count)
system.cpu.statIssuedInstType_0::SimdAes            0      0.00%     80.89% # Number of instructions issued per FU type, per thread (Count)
system.cpu.statIssuedInstType_0::SimdAesMix            0      0.00%     80.89% # Number of instructions issued per FU type, per thread (Count)
system.cpu.statIssuedInstType_0::SimdSha1Hash            0      0.00%     80.89% # Number of instructions issued per FU type, per thread (Count)
system.cpu.statIssuedInstType_0::SimdSha1Hash2            0      0.00%     80.89% # Number of instructions issued per FU type, per thread (Count)
system.cpu.statIssuedInstType_0::SimdSha256Hash            0      0.00%     80.89% # Number of instructions issued per FU type, per thread (Count)
system.cpu.statIssuedInstType_0::SimdSha256Hash2            0      0.00%     80.89% # Number of instructions issued per FU type, per thread (Count)
system.cpu.statIssuedInstType_0::SimdShaSigma2            0      0.00%     80.89% # Number of instructions issued per FU type, per thread (Count)
system.cpu.statIssuedInstType_0::SimdShaSigma3            0      0.00%     80.89% # Number of instructions issued per FU type, per thread (Count)
system.cpu.statIssuedInstType_0::SimdPredAlu            0      0.00%     80.89% # Number of instructions issued per FU type, per thread (Count)
system.cpu.statIssuedInstType_0::MemRead         2807      0.02%     80.91% # Number of instructions issued per FU type, per thread (Count)
system.cpu.statIssuedInstType_0::MemWrite         1722      0.01%     80.92% # Number of instructions issued per FU type, per thread (Count)
system.cpu.statIssuedInstType_0::FloatMemRead      2634148     18.17%     99.09% # Number of instructions issued per FU type, per thread (Count)
system.cpu.statIssuedInstType_0::FloatMemWrite       131604      0.91%    100.00% # Number of instructions issued per FU type, per thread (Count)
system.cpu.statIssuedInstType_0::IprAccess            0      0.00%    100.00% # Number of instructions issued per FU type, per thread (Count)
system.cpu.statIssuedInstType_0::InstPrefetch            0      0.00%    100.00% # Number of instructions issued per FU type, per thread (Count)
system.cpu.statIssuedInstType_0::total       14496154                       # Number of instructions issued per FU type, per thread (Count)
system.cpu.issueRate                         3.648526                       # Inst issue rate ((Count/Cycle))
system.cpu.fuBusy                              258393                       # FU busy when requested (Count)
system.cpu.fuBusyRate                        0.017825                       # FU busy rate (busy events/executed inst) ((Count/Count))
system.cpu.intInstQueueReads                  8914290                       # Number of integer instruction queue reads (Count)
system.cpu.intInstQueueWrites                 2503742                       # Number of integer instruction queue writes (Count)
system.cpu.intInstQueueWakeupAccesses         2485250                       # Number of integer instruction queue wakeup accesses (Count)
system.cpu.fpInstQueueReads                  24277115                       # Number of floating instruction queue reads (Count)
system.cpu.fpInstQueueWrites                 12002473                       # Number of floating instruction queue writes (Count)
system.cpu.fpInstQueueWakeupAccesses         11995464                       # Number of floating instruction queue wakeup accesses (Count)
system.cpu.vecInstQueueReads                        0                       # Number of vector instruction queue reads (Count)
system.cpu.vecInstQueueWrites                       0                       # Number of vector instruction queue writes (Count)
system.cpu.vecInstQueueWakeupAccesses               0                       # Number of vector instruction queue wakeup accesses (Count)
system.cpu.intAluAccesses                     2486256                       # Number of integer alu accesses (Count)
system.cpu.fpAluAccesses                     12267327                       # Number of floating point alu accesses (Count)
system.cpu.vecAluAccesses                           0                       # Number of vector alu accesses (Count)
system.cpu.numInsts                          14493602                       # Number of executed instructions (Count)
system.cpu.numLoadInsts                       2636213                       # Number of load instructions executed (Count)
system.cpu.numSquashedInsts                      2552                       # Number of squashed instructions skipped in execute (Count)
system.cpu.numSwp                                   0                       # Number of swp insts executed (Count)
system.cpu.numNop                                   0                       # Number of nop insts executed (Count)
system.cpu.numRefs                            2769445                       # Number of memory reference insts executed (Count)
system.cpu.numBranches                         297532                       # Number of branches executed (Count)
system.cpu.numStoreInsts                       133232                       # Number of stores executed (Count)
system.cpu.numRate                           3.647884                       # Inst execution rate ((Count/Cycle))
system.cpu.timesIdled                             313                       # Number of times that the entire CPU went into an idle state and unscheduled itself (Count)
system.cpu.idleCycles                           33054                       # Total number of cycles that the CPU has spent unscheduled due to idling (Cycle)
system.cpu.committedInsts                     8104168                       # Number of Instructions Simulated (Count)
system.cpu.committedOps                      14470625                       # Number of Ops (including micro ops) Simulated (Count)
system.cpu.cpi                               0.490260                       # CPI: Cycles Per Instruction ((Cycle/Count))
system.cpu.totalCpi                          0.490260                       # CPI: Total CPI of All Threads ((Cycle/Count))
system.cpu.ipc                               2.039732                       # IPC: Instructions Per Cycle ((Count/Cycle))
system.cpu.totalIpc                          2.039732                       # IPC: Total IPC of All Threads ((Count/Cycle))
system.cpu.intRegfileReads                    8124978                       # Number of integer regfile reads (Count)
system.cpu.intRegfileWrites                   2152795                       # Number of integer regfile writes (Count)
system.cpu.fpRegfileReads                    13370903                       # Number of floating regfile reads (Count)
system.cpu.fpRegfileWrites                   11863823                       # Number of floating regfile writes (Count)
system.cpu.ccRegfileReads                     1486561                       # number of cc regfile reads (Count)
system.cpu.ccRegfileWrites                    1779236                       # number of cc regfile writes (Count)
system.cpu.miscRegfileReads                   3365588                       # number of misc regfile reads (Count)
system.cpu.MemDepUnit__0.insertedLoads        2625626                       # Number of loads inserted to the mem dependence unit. (Count)
system.cpu.MemDepUnit__0.insertedStores        133737                       # Number of stores inserted to the mem dependence unit. (Count)
system.cpu.MemDepUnit__0.conflictingLoads           22                       # Number of conflicting loads. (Count)
system.cpu.MemDepUnit__0.conflictingStores            2                       # Number of conflicting stores. (Count)
system.cpu.MemDepUnit__1.insertedLoads              0                       # Number of loads inserted to the mem dependence unit. (Count)
system.cpu.MemDepUnit__1.insertedStores             0                       # Number of stores inserted to the mem dependence unit. (Count)
system.cpu.MemDepUnit__1.conflictingLoads            0                       # Number of conflicting loads. (Count)
system.cpu.MemDepUnit__1.conflictingStores            0                       # Number of conflicting stores. (Count)
system.cpu.MemDepUnit__2.insertedLoads              0                       # Number of loads inserted to the mem dependence unit. (Count)
system.cpu.MemDepUnit__2.insertedStores             0                       # Number of stores inserted to the mem dependence unit. (Count)
system.cpu.MemDepUnit__2.conflictingLoads            0                       # Number of conflicting loads. (Count)
system.cpu.MemDepUnit__2.conflictingStores            0                       # Number of conflicting stores. (Count)
system.cpu.MemDepUnit__3.insertedLoads              0                       # Number of loads inserted to the mem dependence unit. (Count)
system.cpu.MemDepUnit__3.insertedStores             0                       # Number of stores inserted to the mem dependence unit. (Count)
system.cpu.MemDepUnit__3.conflictingLoads            0                       # Number of conflicting loads. (Count)
system.cpu.MemDepUnit__3.conflictingStores            0                       # Number of conflicting stores. (Count)
system.cpu.branchPred.lookups                  299252                       # Number of BP lookups (Count)
system.cpu.branchPred.condPredicted            298027                       # Number of conditional branches predicted (Count)
system.cpu.branchPred.condIncorrect               971                       # Number of conditional branches incorrect (Count)
system.cpu.branchPred.BTBLookups               264255                       # Number of BTB lookups (Count)
system.cpu.branchPred.BTBHits                  263516                       # Number of BTB hits (Count)
system.cpu.branchPred.BTBHitRatio            0.997203                       # BTB Hit Ratio (Ratio)
system.cpu.branchPred.RASUsed                     284                       # Number of times the RAS was used to get a target. (Count)
system.cpu.branchPred.RASIncorrect                  0                       # Number of incorrect RAS predictions. (Count)
system.cpu.branchPred.indirectLookups             325                       # Number of indirect predictor lookups. (Count)
system.cpu.branchPred.indirectHits                 17                       # Number of indirect target hits. (Count)
system.cpu.branchPred.indirectMisses              308                       # Number of indirect misses. (Count)
system.cpu.branchPred.indirectMispredicted           95                       # Number of mispredicted indirect branches. (Count)
system.cpu.commit.commitSquashedInsts           17629                       # The number of squashed insts skipped by commit (Count)
system.cpu.commit.branchMispredicts               911                       # The number of times a branch was mispredicted (Count)
system.cpu.commit.numCommittedDist::samples      3937369                       # Number of insts commited each cycle (Count)
system.cpu.commit.numCommittedDist::mean     3.675202                       # Number of insts commited each cycle (Count)
system.cpu.commit.numCommittedDist::stdev     3.006624                       # Number of insts commited each cycle (Count)
system.cpu.commit.numCommittedDist::underflows            0      0.00%      0.00% # Number of insts commited each cycle (Count)
system.cpu.commit.numCommittedDist::0          884135     22.45%     22.45% # Number of insts commited each cycle (Count)
system.cpu.commit.numCommittedDist::1          561410     14.26%     36.71% # Number of insts commited each cycle (Count)
system.cpu.commit.numCommittedDist::2          299839      7.62%     44.33% # Number of insts commited each cycle (Count)
system.cpu.commit.numCommittedDist::3           38797      0.99%     45.31% # Number of insts commited each cycle (Count)
system.cpu.commit.numCommittedDist::4          385802      9.80%     55.11% # Number of insts commited each cycle (Count)
system.cpu.commit.numCommittedDist::5          753619     19.14%     74.25% # Number of insts commited each cycle (Count)
system.cpu.commit.numCommittedDist::6           97754      2.48%     76.74% # Number of insts commited each cycle (Count)
system.cpu.commit.numCommittedDist::7           32785      0.83%     77.57% # Number of insts commited each cycle (Count)
system.cpu.commit.numCommittedDist::8          883228     22.43%    100.00% # Number of insts commited each cycle (Count)
system.cpu.commit.numCommittedDist::overflows            0      0.00%    100.00% # Number of insts commited each cycle (Count)
system.cpu.commit.numCommittedDist::min_value            0                       # Number of insts commited each cycle (Count)
system.cpu.commit.numCommittedDist::max_value            8                       # Number of insts commited each cycle (Count)
system.cpu.commit.numCommittedDist::total      3937369                       # Number of insts commited each cycle (Count)
system.cpu.commit.instsCommitted              8104168                       # Number of instructions committed (Count)
system.cpu.commit.opsCommitted               14470625                       # Number of ops (including micro ops) committed (Count)
system.cpu.commit.memRefs                     2755586                       # Number of memory references committed (Count)
system.cpu.commit.loads                       2622923                       # Number of loads committed (Count)
system.cpu.commit.amos                              0                       # Number of atomic instructions committed (Count)
system.cpu.commit.membars                           0                       # Number of memory barriers committed (Count)
system.cpu.commit.branches                     296839                       # Number of branches committed (Count)
system.cpu.commit.vectorInstructions                0                       # Number of committed Vector instructions. (Count)
system.cpu.commit.floating                   11994221                       # Number of committed floating point instructions. (Count)
system.cpu.commit.integer                     5196284                       # Number of committed integer instructions. (Count)
system.cpu.commit.functionCalls                   144                       # Number of function calls committed. (Count)
system.cpu.commit.committedInstType_0::No_OpClass          443      0.00%      0.00% # Class of committed instruction (Count)
system.cpu.commit.committedInstType_0::IntAlu      2539040     17.55%     17.55% # Class of committed instruction (Count)
system.cpu.commit.committedInstType_0::IntMult            5      0.00%     17.55% # Class of committed instruction (Count)
system.cpu.commit.committedInstType_0::IntDiv           21      0.00%     17.55% # Class of committed instruction (Count)
system.cpu.commit.committedInstType_0::FloatAdd      4718727     32.61%     50.16% # Class of committed instruction (Count)
system.cpu.commit.committedInstType_0::FloatCmp            0      0.00%     50.16% # Class of committed instruction (Count)
system.cpu.commit.committedInstType_0::FloatCvt            0      0.00%     50.16% # Class of committed instruction (Count)
system.cpu.commit.committedInstType_0::FloatMult            0      0.00%     50.16% # Class of committed instruction (Count)
system.cpu.commit.committedInstType_0::FloatMultAcc            0      0.00%     50.16% # Class of committed instruction (Count)
system.cpu.commit.committedInstType_0::FloatDiv            0      0.00%     50.16% # Class of committed instruction (Count)
system.cpu.commit.committedInstType_0::FloatMisc            0      0.00%     50.16% # Class of committed instruction (Count)
system.cpu.commit.committedInstType_0::FloatSqrt            0      0.00%     50.16% # Class of committed instruction (Count)
system.cpu.commit.committedInstType_0::SimdAdd            0      0.00%     50.16% # Class of committed instruction (Count)
system.cpu.commit.committedInstType_0::SimdAddAcc            0      0.00%     50.16% # Class of committed instruction (Count)
system.cpu.commit.committedInstType_0::SimdAlu           94      0.00%     50.16% # Class of committed instruction (Count)
system.cpu.commit.committedInstType_0::SimdCmp            0      0.00%     50.16% # Class of committed instruction (Count)
system.cpu.commit.committedInstType_0::SimdCvt           46      0.00%     50.16% # Class of committed instruction (Count)
system.cpu.commit.committedInstType_0::SimdMisc       262359      1.81%     51.97% # Class of committed instruction (Count)
system.cpu.commit.committedInstType_0::SimdMult            0      0.00%     51.97% # Class of committed instruction (Count)
system.cpu.commit.committedInstType_0::SimdMultAcc            0      0.00%     51.97% # Class of committed instruction (Count)
system.cpu.commit.committedInstType_0::SimdShift            0      0.00%     51.97% # Class of committed instruction (Count)
system.cpu.commit.committedInstType_0::SimdShiftAcc            0      0.00%     51.97% # Class of committed instruction (Count)
system.cpu.commit.committedInstType_0::SimdDiv            0      0.00%     51.97% # Class of committed instruction (Count)
system.cpu.commit.committedInstType_0::SimdSqrt            0      0.00%     51.97% # Class of committed instruction (Count)
system.cpu.commit.committedInstType_0::SimdFloatAdd      2097152     14.49%     66.46% # Class of committed instruction (Count)
system.cpu.commit.committedInstType_0::SimdFloatAlu            0      0.00%     66.46% # Class of committed instruction (Count)
system.cpu.commit.committedInstType_0::SimdFloatCmp            0      0.00%     66.46% # Class of committed instruction (Count)
system.cpu.commit.committedInstType_0::SimdFloatCvt            0      0.00%     66.46% # Class of committed instruction (Count)
system.cpu.commit.committedInstType_0::SimdFloatDiv            0      0.00%     66.46% # Class of committed instruction (Count)
system.cpu.commit.committedInstType_0::SimdFloatMisc            0      0.00%     66.46% # Class of committed instruction (Count)
system.cpu.commit.committedInstType_0::SimdFloatMult      2097152     14.49%     80.96% # Class of committed instruction (Count)
system.cpu.commit.committedInstType_0::SimdFloatMultAcc            0      0.00%     80.96% # Class of committed instruction (Count)
system.cpu.commit.committedInstType_0::SimdFloatSqrt            0      0.00%     80.96% # Class of committed instruction (Count)
system.cpu.commit.committedInstType_0::SimdReduceAdd            0      0.00%     80.96% # Class of committed instruction (Count)
system.cpu.commit.committedInstType_0::SimdReduceAlu            0      0.00%     80.96% # Class of committed instruction (Count)
system.cpu.commit.committedInstType_0::SimdReduceCmp            0      0.00%     80.96% # Class of committed instruction (Count)
system.cpu.commit.committedInstType_0::SimdFloatReduceAdd            0      0.00%     80.96% # Class of committed instruction (Count)
system.cpu.commit.committedInstType_0::SimdFloatReduceCmp            0      0.00%     80.96% # Class of committed instruction (Count)
system.cpu.commit.committedInstType_0::SimdAes            0      0.00%     80.96% # Class of committed instruction (Count)
system.cpu.commit.committedInstType_0::SimdAesMix            0      0.00%     80.96% # Class of committed instruction (Count)
system.cpu.commit.committedInstType_0::SimdSha1Hash            0      0.00%     80.96% # Class of committed instruction (Count)
system.cpu.commit.committedInstType_0::SimdSha1Hash2            0      0.00%     80.96% # Class of committed instruction (Count)
system.cpu.commit.committedInstType_0::SimdSha256Hash            0      0.00%     80.96% # Class of committed instruction (Count)
system.cpu.commit.committedInstType_0::SimdSha256Hash2            0      0.00%     80.96% # Class of committed instruction (Count)
system.cpu.commit.committedInstType_0::SimdShaSigma2            0      0.00%     80.96% # Class of committed instruction (Count)
system.cpu.commit.committedInstType_0::SimdShaSigma3            0      0.00%     80.96% # Class of committed instruction (Count)
system.cpu.commit.committedInstType_0::SimdPredAlu            0      0.00%     80.96% # Class of committed instruction (Count)
system.cpu.commit.committedInstType_0::MemRead         1437      0.01%     80.97% # Class of committed instruction (Count)
system.cpu.commit.committedInstType_0::MemWrite         1133      0.01%     80.98% # Class of committed instruction (Count)
system.cpu.commit.committedInstType_0::FloatMemRead      2621486     18.12%     99.09% # Class of committed instruction (Count)
system.cpu.commit.committedInstType_0::FloatMemWrite       131530      0.91%    100.00% # Class of committed instruction (Count)
system.cpu.commit.committedInstType_0::IprAccess            0      0.00%    100.00% # Class of committed instruction (Count)
system.cpu.commit.committedInstType_0::InstPrefetch            0      0.00%    100.00% # Class of committed instruction (Count)
system.cpu.commit.committedInstType_0::total     14470625                       # Class of committed instruction (Count)
system.cpu.commit.commitEligibleSamples        883228                       # number cycles where commit BW limit reached (Cycle)
system.cpu.dcache.demandHits::cpu.data        2719160                       # number of demand (read+write) hits (Count)
system.cpu.dcache.demandHits::total           2719160                       # number of demand (read+write) hits (Count)
system.cpu.dcache.overallHits::cpu.data       2719160                       # number of overall hits (Count)
system.cpu.dcache.overallHits::total          2719160                       # number of overall hits (Count)
system.cpu.dcache.demandMisses::cpu.data       168912                       # number of demand (read+write) misses (Count)
system.cpu.dcache.demandMisses::total          168912                       # number of demand (read+write) misses (Count)
system.cpu.dcache.overallMisses::cpu.data       168912                       # number of overall misses (Count)
system.cpu.dcache.overallMisses::total         168912                       # number of overall misses (Count)
system.cpu.dcache.demandMissLatency::cpu.data   2934526999                       # number of demand (read+write) miss ticks (Tick)
system.cpu.dcache.demandMissLatency::total   2934526999                       # number of demand (read+write) miss ticks (Tick)
system.cpu.dcache.overallMissLatency::cpu.data   2934526999                       # number of overall miss ticks (Tick)
system.cpu.dcache.overallMissLatency::total   2934526999                       # number of overall miss ticks (Tick)
system.cpu.dcache.demandAccesses::cpu.data      2888072                       # number of demand (read+write) accesses (Count)
system.cpu.dcache.demandAccesses::total       2888072                       # number of demand (read+write) accesses (Count)
system.cpu.dcache.overallAccesses::cpu.data      2888072                       # number of overall (read+write) accesses (Count)
system.cpu.dcache.overallAccesses::total      2888072                       # number of overall (read+write) accesses (Count)
system.cpu.dcache.demandMissRate::cpu.data     0.058486                       # miss rate for demand accesses (Ratio)
system.cpu.dcache.demandMissRate::total      0.058486                       # miss rate for demand accesses (Ratio)
system.cpu.dcache.overallMissRate::cpu.data     0.058486                       # miss rate for overall accesses (Ratio)
system.cpu.dcache.overallMissRate::total     0.058486                       # miss rate for overall accesses (Ratio)
system.cpu.dcache.demandAvgMissLatency::cpu.data 17373.111437                       # average overall miss latency ((Cycle/Count))
system.cpu.dcache.demandAvgMissLatency::total 17373.111437                       # average overall miss latency ((Cycle/Count))
system.cpu.dcache.overallAvgMissLatency::cpu.data 17373.111437                       # average overall miss latency ((Cycle/Count))
system.cpu.dcache.overallAvgMissLatency::total 17373.111437                       # average overall miss latency ((Cycle/Count))
system.cpu.dcache.blockedCycles::no_mshrs        34566                       # number of cycles access was blocked (Cycle)
system.cpu.dcache.blockedCycles::no_targets            0                       # number of cycles access was blocked (Cycle)
system.cpu.dcache.blockedCauses::no_mshrs         1674                       # number of times access was blocked (Count)
system.cpu.dcache.blockedCauses::no_targets            0                       # number of times access was blocked (Count)
system.cpu.dcache.avgBlocked::no_mshrs      20.648746                       # average number of cycles each access was blocked ((Cycle/Count))
system.cpu.dcache.avgBlocked::no_targets          nan                       # average number of cycles each access was blocked ((Cycle/Count))
system.cpu.dcache.writebacks::writebacks        15827                       # number of writebacks (Count)
system.cpu.dcache.writebacks::total             15827                       # number of writebacks (Count)
system.cpu.dcache.demandMshrHits::cpu.data       138951                       # number of demand (read+write) MSHR hits (Count)
system.cpu.dcache.demandMshrHits::total        138951                       # number of demand (read+write) MSHR hits (Count)
system.cpu.dcache.overallMshrHits::cpu.data       138951                       # number of overall MSHR hits (Count)
system.cpu.dcache.overallMshrHits::total       138951                       # number of overall MSHR hits (Count)
system.cpu.dcache.demandMshrMisses::cpu.data        29961                       # number of demand (read+write) MSHR misses (Count)
system.cpu.dcache.demandMshrMisses::total        29961                       # number of demand (read+write) MSHR misses (Count)
system.cpu.dcache.overallMshrMisses::cpu.data        29961                       # number of overall MSHR misses (Count)
system.cpu.dcache.overallMshrMisses::total        29961                       # number of overall MSHR misses (Count)
system.cpu.dcache.demandMshrMissLatency::cpu.data    560654999                       # number of demand (read+write) MSHR miss ticks (Tick)
system.cpu.dcache.demandMshrMissLatency::total    560654999                       # number of demand (read+write) MSHR miss ticks (Tick)
system.cpu.dcache.overallMshrMissLatency::cpu.data    560654999                       # number of overall MSHR miss ticks (Tick)
system.cpu.dcache.overallMshrMissLatency::total    560654999                       # number of overall MSHR miss ticks (Tick)
system.cpu.dcache.demandMshrMissRate::cpu.data     0.010374                       # mshr miss ratio for demand accesses (Ratio)
system.cpu.dcache.demandMshrMissRate::total     0.010374                       # mshr miss ratio for demand accesses (Ratio)
system.cpu.dcache.overallMshrMissRate::cpu.data     0.010374                       # mshr miss ratio for overall accesses (Ratio)
system.cpu.dcache.overallMshrMissRate::total     0.010374                       # mshr miss ratio for overall accesses (Ratio)
system.cpu.dcache.demandAvgMshrMissLatency::cpu.data 18712.826641                       # average overall mshr miss latency ((Cycle/Count))
system.cpu.dcache.demandAvgMshrMissLatency::total 18712.826641                       # average overall mshr miss latency ((Cycle/Count))
system.cpu.dcache.overallAvgMshrMissLatency::cpu.data 18712.826641                       # average overall mshr miss latency ((Cycle/Count))
system.cpu.dcache.overallAvgMshrMissLatency::total 18712.826641                       # average overall mshr miss latency ((Cycle/Count))
system.cpu.dcache.replacements                  28937                       # number of replacements (Count)
system.cpu.dcache.ReadReq.hits::cpu.data      2586923                       # number of ReadReq hits (Count)
system.cpu.dcache.ReadReq.hits::total         2586923                       # number of ReadReq hits (Count)
system.cpu.dcache.ReadReq.misses::cpu.data       168485                       # number of ReadReq misses (Count)
system.cpu.dcache.ReadReq.misses::total        168485                       # number of ReadReq misses (Count)
system.cpu.dcache.ReadReq.missLatency::cpu.data   2921782500                       # number of ReadReq miss ticks (Tick)
system.cpu.dcache.ReadReq.missLatency::total   2921782500                       # number of ReadReq miss ticks (Tick)
system.cpu.dcache.ReadReq.accesses::cpu.data      2755408                       # number of ReadReq accesses(hits+misses) (Count)
system.cpu.dcache.ReadReq.accesses::total      2755408                       # number of ReadReq accesses(hits+misses) (Count)
system.cpu.dcache.ReadReq.missRate::cpu.data     0.061147                       # miss rate for ReadReq accesses (Ratio)
system.cpu.dcache.ReadReq.missRate::total     0.061147                       # miss rate for ReadReq accesses (Ratio)
system.cpu.dcache.ReadReq.avgMissLatency::cpu.data 17341.499243                       # average ReadReq miss latency ((Tick/Count))
system.cpu.dcache.ReadReq.avgMissLatency::total 17341.499243                       # average ReadReq miss latency ((Tick/Count))
system.cpu.dcache.ReadReq.mshrHits::cpu.data       138948                       # number of ReadReq MSHR hits (Count)
system.cpu.dcache.ReadReq.mshrHits::total       138948                       # number of ReadReq MSHR hits (Count)
system.cpu.dcache.ReadReq.mshrMisses::cpu.data        29537                       # number of ReadReq MSHR misses (Count)
system.cpu.dcache.ReadReq.mshrMisses::total        29537                       # number of ReadReq MSHR misses (Count)
system.cpu.dcache.ReadReq.mshrMissLatency::cpu.data    548472500                       # number of ReadReq MSHR miss ticks (Tick)
system.cpu.dcache.ReadReq.mshrMissLatency::total    548472500                       # number of ReadReq MSHR miss ticks (Tick)
system.cpu.dcache.ReadReq.mshrMissRate::cpu.data     0.010720                       # mshr miss rate for ReadReq accesses (Ratio)
system.cpu.dcache.ReadReq.mshrMissRate::total     0.010720                       # mshr miss rate for ReadReq accesses (Ratio)
system.cpu.dcache.ReadReq.avgMshrMissLatency::cpu.data 18568.998206                       # average ReadReq mshr miss latency ((Tick/Count))
system.cpu.dcache.ReadReq.avgMshrMissLatency::total 18568.998206                       # average ReadReq mshr miss latency ((Tick/Count))
system.cpu.dcache.WriteReq.hits::cpu.data       132237                       # number of WriteReq hits (Count)
system.cpu.dcache.WriteReq.hits::total         132237                       # number of WriteReq hits (Count)
system.cpu.dcache.WriteReq.misses::cpu.data          427                       # number of WriteReq misses (Count)
system.cpu.dcache.WriteReq.misses::total          427                       # number of WriteReq misses (Count)
system.cpu.dcache.WriteReq.missLatency::cpu.data     12744499                       # number of WriteReq miss ticks (Tick)
system.cpu.dcache.WriteReq.missLatency::total     12744499                       # number of WriteReq miss ticks (Tick)
system.cpu.dcache.WriteReq.accesses::cpu.data       132664                       # number of WriteReq accesses(hits+misses) (Count)
system.cpu.dcache.WriteReq.accesses::total       132664                       # number of WriteReq accesses(hits+misses) (Count)
system.cpu.dcache.WriteReq.missRate::cpu.data     0.003219                       # miss rate for WriteReq accesses (Ratio)
system.cpu.dcache.WriteReq.missRate::total     0.003219                       # miss rate for WriteReq accesses (Ratio)
system.cpu.dcache.WriteReq.avgMissLatency::cpu.data 29846.601874                       # average WriteReq miss latency ((Tick/Count))
system.cpu.dcache.WriteReq.avgMissLatency::total 29846.601874                       # average WriteReq miss latency ((Tick/Count))
system.cpu.dcache.WriteReq.mshrHits::cpu.data            3                       # number of WriteReq MSHR hits (Count)
system.cpu.dcache.WriteReq.mshrHits::total            3                       # number of WriteReq MSHR hits (Count)
system.cpu.dcache.WriteReq.mshrMisses::cpu.data          424                       # number of WriteReq MSHR misses (Count)
system.cpu.dcache.WriteReq.mshrMisses::total          424                       # number of WriteReq MSHR misses (Count)
system.cpu.dcache.WriteReq.mshrMissLatency::cpu.data     12182499                       # number of WriteReq MSHR miss ticks (Tick)
system.cpu.dcache.WriteReq.mshrMissLatency::total     12182499                       # number of WriteReq MSHR miss ticks (Tick)
system.cpu.dcache.WriteReq.mshrMissRate::cpu.data     0.003196                       # mshr miss rate for WriteReq accesses (Ratio)
system.cpu.dcache.WriteReq.mshrMissRate::total     0.003196                       # mshr miss rate for WriteReq accesses (Ratio)
system.cpu.dcache.WriteReq.avgMshrMissLatency::cpu.data 28732.308962                       # average WriteReq mshr miss latency ((Tick/Count))
system.cpu.dcache.WriteReq.avgMshrMissLatency::total 28732.308962                       # average WriteReq mshr miss latency ((Tick/Count))
system.cpu.dcache.power_state.pwrStateResidencyTicks::UNDEFINED   1986576000                       # Cumulative time (in ticks) in various power states (Tick)
system.cpu.dcache.tags.tagsInUse           978.212997                       # Average ticks per tags in use ((Tick/Count))
system.cpu.dcache.tags.totalRefs              2749121                       # Total number of references to valid blocks. (Count)
system.cpu.dcache.tags.sampledRefs              29961                       # Sample count of references to valid blocks. (Count)
system.cpu.dcache.tags.avgRefs              91.756650                       # Average number of references to valid blocks. ((Count/Count))
system.cpu.dcache.tags.warmupTick              165500                       # The tick when the warmup percentage was hit. (Tick)
system.cpu.dcache.tags.occupancies::cpu.data   978.212997                       # Average occupied blocks per tick, per requestor ((Count/Tick))
system.cpu.dcache.tags.avgOccs::cpu.data     0.955286                       # Average percentage of cache occupancy ((Ratio/Tick))
system.cpu.dcache.tags.avgOccs::total        0.955286                       # Average percentage of cache occupancy ((Ratio/Tick))
system.cpu.dcache.tags.occupanciesTaskId::1024         1024                       # Occupied blocks per task id (Count)
system.cpu.dcache.tags.ageTaskId_1024::0          152                       # Occupied blocks per task id, per block age (Count)
system.cpu.dcache.tags.ageTaskId_1024::1          186                       # Occupied blocks per task id, per block age (Count)
system.cpu.dcache.tags.ageTaskId_1024::2          551                       # Occupied blocks per task id, per block age (Count)
system.cpu.dcache.tags.ageTaskId_1024::3          135                       # Occupied blocks per task id, per block age (Count)
system.cpu.dcache.tags.ratioOccsTaskId::1024            1                       # Ratio of occupied blocks and all blocks, per task id (Ratio)
system.cpu.dcache.tags.tagAccesses           46239113                       # Number of tag accesses (Count)
system.cpu.dcache.tags.dataAccesses          46239113                       # Number of data accesses (Count)
system.cpu.dcache.tags.power_state.pwrStateResidencyTicks::UNDEFINED   1986576000                       # Cumulative time (in ticks) in various power states (Tick)
system.cpu.decode.idleCycles                  1599456                       # Number of cycles decode is idle (Cycle)
system.cpu.decode.blockedCycles                268860                       # Number of cycles decode is blocked (Cycle)
system.cpu.decode.runCycles                   2061346                       # Number of cycles decode is running (Cycle)
system.cpu.decode.unblockCycles                  9506                       # Number of cycles decode is unblocking (Cycle)
system.cpu.decode.squashCycles                    931                       # Number of cycles decode is squashing (Cycle)
system.cpu.decode.branchResolved               263645                       # Number of times decode resolved a branch (Count)
system.cpu.decode.branchMispred                   225                       # Number of times decode detected a branch misprediction (Count)
system.cpu.decode.decodedInsts               14497727                       # Number of instructions handled by decode (Count)
system.cpu.decode.squashedInsts                  1034                       # Number of squashed instructions handled by decode (Count)
system.cpu.dtb_walker_cache.blockedCycles::no_mshrs            0                       # number of cycles access was blocked (Cycle)
system.cpu.dtb_walker_cache.blockedCycles::no_targets            0                       # number of cycles access was blocked (Cycle)
system.cpu.dtb_walker_cache.blockedCauses::no_mshrs            0                       # number of times access was blocked (Count)
system.cpu.dtb_walker_cache.blockedCauses::no_targets            0                       # number of times access was blocked (Count)
system.cpu.dtb_walker_cache.avgBlocked::no_mshrs          nan                       # average number of cycles each access was blocked ((Cycle/Count))
system.cpu.dtb_walker_cache.avgBlocked::no_targets          nan                       # average number of cycles each access was blocked ((Cycle/Count))
system.cpu.dtb_walker_cache.replacements            0                       # number of replacements (Count)
system.cpu.dtb_walker_cache.power_state.pwrStateResidencyTicks::UNDEFINED   1986576000                       # Cumulative time (in ticks) in various power states (Tick)
system.cpu.dtb_walker_cache.tags.tagsInUse            0                       # Average ticks per tags in use ((Tick/Count))
system.cpu.dtb_walker_cache.tags.totalRefs            0                       # Total number of references to valid blocks. (Count)
system.cpu.dtb_walker_cache.tags.sampledRefs            0                       # Sample count of references to valid blocks. (Count)
system.cpu.dtb_walker_cache.tags.avgRefs          nan                       # Average number of references to valid blocks. ((Count/Count))
system.cpu.dtb_walker_cache.tags.warmupTick            0                       # The tick when the warmup percentage was hit. (Tick)
system.cpu.dtb_walker_cache.tags.tagAccesses            0                       # Number of tag accesses (Count)
system.cpu.dtb_walker_cache.tags.dataAccesses            0                       # Number of data accesses (Count)
system.cpu.dtb_walker_cache.tags.power_state.pwrStateResidencyTicks::UNDEFINED   1986576000                       # Cumulative time (in ticks) in various power states (Tick)
system.cpu.fetch.icacheStallCycles            1100606                       # Number of cycles fetch is stalled on an Icache miss (Cycle)
system.cpu.fetch.insts                        8119717                       # Number of instructions fetch has processed (Count)
system.cpu.fetch.branches                      299252                       # Number of branches that fetch encountered (Count)
system.cpu.fetch.predictedBranches             263817                       # Number of branches that fetch has predicted taken (Count)
system.cpu.fetch.cycles                       2837188                       # Number of cycles fetch has run and was not squashing or blocked (Cycle)
system.cpu.fetch.squashCycles                    2286                       # Number of cycles fetch has spent squashing (Cycle)
system.cpu.fetch.miscStallCycles                  165                       # Number of cycles fetch has spent waiting on interrupts, or bad addresses, or out of MSHRs (Cycle)
system.cpu.fetch.pendingTrapStallCycles           978                       # Number of stall cycles due to pending traps (Cycle)
system.cpu.fetch.pendingQuiesceStallCycles            2                       # Number of stall cycles due to pending quiesce instructions (Cycle)
system.cpu.fetch.icacheWaitRetryStallCycles           17                       # Number of stall cycles due to full MSHR (Cycle)
system.cpu.fetch.cacheLines                   1085028                       # Number of cache lines fetched (Count)
system.cpu.fetch.icacheSquashes                   377                       # Number of outstanding Icache misses that were squashed (Count)
system.cpu.fetch.nisnDist::samples            3940099                       # Number of instructions fetched each cycle (Total) (Count)
system.cpu.fetch.nisnDist::mean              3.680652                       # Number of instructions fetched each cycle (Total) (Count)
system.cpu.fetch.nisnDist::stdev             3.896933                       # Number of instructions fetched each cycle (Total) (Count)
system.cpu.fetch.nisnDist::underflows               0      0.00%      0.00% # Number of instructions fetched each cycle (Total) (Count)
system.cpu.fetch.nisnDist::0                  1865022     47.33%     47.33% # Number of instructions fetched each cycle (Total) (Count)
system.cpu.fetch.nisnDist::1                   264513      6.71%     54.05% # Number of instructions fetched each cycle (Total) (Count)
system.cpu.fetch.nisnDist::2                      689      0.02%     54.07% # Number of instructions fetched each cycle (Total) (Count)
system.cpu.fetch.nisnDist::3                    33742      0.86%     54.92% # Number of instructions fetched each cycle (Total) (Count)
system.cpu.fetch.nisnDist::4                      718      0.02%     54.94% # Number of instructions fetched each cycle (Total) (Count)
system.cpu.fetch.nisnDist::5                      704      0.02%     54.96% # Number of instructions fetched each cycle (Total) (Count)
system.cpu.fetch.nisnDist::6                    33190      0.84%     55.80% # Number of instructions fetched each cycle (Total) (Count)
system.cpu.fetch.nisnDist::7                     2683      0.07%     55.87% # Number of instructions fetched each cycle (Total) (Count)
system.cpu.fetch.nisnDist::8                  1738838     44.13%    100.00% # Number of instructions fetched each cycle (Total) (Count)
system.cpu.fetch.nisnDist::overflows                0      0.00%    100.00% # Number of instructions fetched each cycle (Total) (Count)
system.cpu.fetch.nisnDist::min_value                0                       # Number of instructions fetched each cycle (Total) (Count)
system.cpu.fetch.nisnDist::max_value                8                       # Number of instructions fetched each cycle (Total) (Count)
system.cpu.fetch.nisnDist::total              3940099                       # Number of instructions fetched each cycle (Total) (Count)
system.cpu.fetch.branchRate                  0.075319                       # Number of branch fetches per cycle (Ratio)
system.cpu.fetch.rate                        2.043646                       # Number of inst fetches per cycle ((Count/Cycle))
system.cpu.icache.demandHits::cpu.inst        1084426                       # number of demand (read+write) hits (Count)
system.cpu.icache.demandHits::total           1084426                       # number of demand (read+write) hits (Count)
system.cpu.icache.overallHits::cpu.inst       1084426                       # number of overall hits (Count)
system.cpu.icache.overallHits::total          1084426                       # number of overall hits (Count)
system.cpu.icache.demandMisses::cpu.inst          602                       # number of demand (read+write) misses (Count)
system.cpu.icache.demandMisses::total             602                       # number of demand (read+write) misses (Count)
system.cpu.icache.overallMisses::cpu.inst          602                       # number of overall misses (Count)
system.cpu.icache.overallMisses::total            602                       # number of overall misses (Count)
system.cpu.icache.demandMissLatency::cpu.inst     42274000                       # number of demand (read+write) miss ticks (Tick)
system.cpu.icache.demandMissLatency::total     42274000                       # number of demand (read+write) miss ticks (Tick)
system.cpu.icache.overallMissLatency::cpu.inst     42274000                       # number of overall miss ticks (Tick)
system.cpu.icache.overallMissLatency::total     42274000                       # number of overall miss ticks (Tick)
system.cpu.icache.demandAccesses::cpu.inst      1085028                       # number of demand (read+write) accesses (Count)
system.cpu.icache.demandAccesses::total       1085028                       # number of demand (read+write) accesses (Count)
system.cpu.icache.overallAccesses::cpu.inst      1085028                       # number of overall (read+write) accesses (Count)
system.cpu.icache.overallAccesses::total      1085028                       # number of overall (read+write) accesses (Count)
system.cpu.icache.demandMissRate::cpu.inst     0.000555                       # miss rate for demand accesses (Ratio)
system.cpu.icache.demandMissRate::total      0.000555                       # miss rate for demand accesses (Ratio)
system.cpu.icache.overallMissRate::cpu.inst     0.000555                       # miss rate for overall accesses (Ratio)
system.cpu.icache.overallMissRate::total     0.000555                       # miss rate for overall accesses (Ratio)
system.cpu.icache.demandAvgMissLatency::cpu.inst 70222.591362                       # average overall miss latency ((Cycle/Count))
system.cpu.icache.demandAvgMissLatency::total 70222.591362                       # average overall miss latency ((Cycle/Count))
system.cpu.icache.overallAvgMissLatency::cpu.inst 70222.591362                       # average overall miss latency ((Cycle/Count))
system.cpu.icache.overallAvgMissLatency::total 70222.591362                       # average overall miss latency ((Cycle/Count))
system.cpu.icache.blockedCycles::no_mshrs          303                       # number of cycles access was blocked (Cycle)
system.cpu.icache.blockedCycles::no_targets            0                       # number of cycles access was blocked (Cycle)
system.cpu.icache.blockedCauses::no_mshrs            4                       # number of times access was blocked (Count)
system.cpu.icache.blockedCauses::no_targets            0                       # number of times access was blocked (Count)
system.cpu.icache.avgBlocked::no_mshrs      75.750000                       # average number of cycles each access was blocked ((Cycle/Count))
system.cpu.icache.avgBlocked::no_targets          nan                       # average number of cycles each access was blocked ((Cycle/Count))
system.cpu.icache.writebacks::writebacks           19                       # number of writebacks (Count)
system.cpu.icache.writebacks::total                19                       # number of writebacks (Count)
system.cpu.icache.demandMshrHits::cpu.inst          142                       # number of demand (read+write) MSHR hits (Count)
system.cpu.icache.demandMshrHits::total           142                       # number of demand (read+write) MSHR hits (Count)
system.cpu.icache.overallMshrHits::cpu.inst          142                       # number of overall MSHR hits (Count)
system.cpu.icache.overallMshrHits::total          142                       # number of overall MSHR hits (Count)
system.cpu.icache.demandMshrMisses::cpu.inst          460                       # number of demand (read+write) MSHR misses (Count)
system.cpu.icache.demandMshrMisses::total          460                       # number of demand (read+write) MSHR misses (Count)
system.cpu.icache.overallMshrMisses::cpu.inst          460                       # number of overall MSHR misses (Count)
system.cpu.icache.overallMshrMisses::total          460                       # number of overall MSHR misses (Count)
system.cpu.icache.demandMshrMissLatency::cpu.inst     34319000                       # number of demand (read+write) MSHR miss ticks (Tick)
system.cpu.icache.demandMshrMissLatency::total     34319000                       # number of demand (read+write) MSHR miss ticks (Tick)
system.cpu.icache.overallMshrMissLatency::cpu.inst     34319000                       # number of overall MSHR miss ticks (Tick)
system.cpu.icache.overallMshrMissLatency::total     34319000                       # number of overall MSHR miss ticks (Tick)
system.cpu.icache.demandMshrMissRate::cpu.inst     0.000424                       # mshr miss ratio for demand accesses (Ratio)
system.cpu.icache.demandMshrMissRate::total     0.000424                       # mshr miss ratio for demand accesses (Ratio)
system.cpu.icache.overallMshrMissRate::cpu.inst     0.000424                       # mshr miss ratio for overall accesses (Ratio)
system.cpu.icache.overallMshrMissRate::total     0.000424                       # mshr miss ratio for overall accesses (Ratio)
system.cpu.icache.demandAvgMshrMissLatency::cpu.inst 74606.521739                       # average overall mshr miss latency ((Cycle/Count))
system.cpu.icache.demandAvgMshrMissLatency::total 74606.521739                       # average overall mshr miss latency ((Cycle/Count))
system.cpu.icache.overallAvgMshrMissLatency::cpu.inst 74606.521739                       # average overall mshr miss latency ((Cycle/Count))
system.cpu.icache.overallAvgMshrMissLatency::total 74606.521739                       # average overall mshr miss latency ((Cycle/Count))
system.cpu.icache.replacements                     19                       # number of replacements (Count)
system.cpu.icache.ReadReq.hits::cpu.inst      1084426                       # number of ReadReq hits (Count)
system.cpu.icache.ReadReq.hits::total         1084426                       # number of ReadReq hits (Count)
system.cpu.icache.ReadReq.misses::cpu.inst          602                       # number of ReadReq misses (Count)
system.cpu.icache.ReadReq.misses::total           602                       # number of ReadReq misses (Count)
system.cpu.icache.ReadReq.missLatency::cpu.inst     42274000                       # number of ReadReq miss ticks (Tick)
system.cpu.icache.ReadReq.missLatency::total     42274000                       # number of ReadReq miss ticks (Tick)
system.cpu.icache.ReadReq.accesses::cpu.inst      1085028                       # number of ReadReq accesses(hits+misses) (Count)
system.cpu.icache.ReadReq.accesses::total      1085028                       # number of ReadReq accesses(hits+misses) (Count)
system.cpu.icache.ReadReq.missRate::cpu.inst     0.000555                       # miss rate for ReadReq accesses (Ratio)
system.cpu.icache.ReadReq.missRate::total     0.000555                       # miss rate for ReadReq accesses (Ratio)
system.cpu.icache.ReadReq.avgMissLatency::cpu.inst 70222.591362                       # average ReadReq miss latency ((Tick/Count))
system.cpu.icache.ReadReq.avgMissLatency::total 70222.591362                       # average ReadReq miss latency ((Tick/Count))
system.cpu.icache.ReadReq.mshrHits::cpu.inst          142                       # number of ReadReq MSHR hits (Count)
system.cpu.icache.ReadReq.mshrHits::total          142                       # number of ReadReq MSHR hits (Count)
system.cpu.icache.ReadReq.mshrMisses::cpu.inst          460                       # number of ReadReq MSHR misses (Count)
system.cpu.icache.ReadReq.mshrMisses::total          460                       # number of ReadReq MSHR misses (Count)
system.cpu.icache.ReadReq.mshrMissLatency::cpu.inst     34319000                       # number of ReadReq MSHR miss ticks (Tick)
system.cpu.icache.ReadReq.mshrMissLatency::total     34319000                       # number of ReadReq MSHR miss ticks (Tick)
system.cpu.icache.ReadReq.mshrMissRate::cpu.inst     0.000424                       # mshr miss rate for ReadReq accesses (Ratio)
system.cpu.icache.ReadReq.mshrMissRate::total     0.000424                       # mshr miss rate for ReadReq accesses (Ratio)
system.cpu.icache.ReadReq.avgMshrMissLatency::cpu.inst 74606.521739                       # average ReadReq mshr miss latency ((Tick/Count))
system.cpu.icache.ReadReq.avgMshrMissLatency::total 74606.521739                       # average ReadReq mshr miss latency ((Tick/Count))
system.cpu.icache.power_state.pwrStateResidencyTicks::UNDEFINED   1986576000                       # Cumulative time (in ticks) in various power states (Tick)
system.cpu.icache.tags.tagsInUse           403.765735                       # Average ticks per tags in use ((Tick/Count))
system.cpu.icache.tags.totalRefs              1084885                       # Total number of references to valid blocks. (Count)
system.cpu.icache.tags.sampledRefs                459                       # Sample count of references to valid blocks. (Count)
system.cpu.icache.tags.avgRefs            2363.583878                       # Average number of references to valid blocks. ((Count/Count))
system.cpu.icache.tags.warmupTick               82000                       # The tick when the warmup percentage was hit. (Tick)
system.cpu.icache.tags.occupancies::cpu.inst   403.765735                       # Average occupied blocks per tick, per requestor ((Count/Tick))
system.cpu.icache.tags.avgOccs::cpu.inst     0.394302                       # Average percentage of cache occupancy ((Ratio/Tick))
system.cpu.icache.tags.avgOccs::total        0.394302                       # Average percentage of cache occupancy ((Ratio/Tick))
system.cpu.icache.tags.occupanciesTaskId::1024          440                       # Occupied blocks per task id (Count)
system.cpu.icache.tags.ageTaskId_1024::0           37                       # Occupied blocks per task id, per block age (Count)
system.cpu.icache.tags.ageTaskId_1024::3          403                       # Occupied blocks per task id, per block age (Count)
system.cpu.icache.tags.ratioOccsTaskId::1024     0.429688                       # Ratio of occupied blocks and all blocks, per task id (Ratio)
system.cpu.icache.tags.tagAccesses            2170515                       # Number of tag accesses (Count)
system.cpu.icache.tags.dataAccesses           2170515                       # Number of data accesses (Count)
system.cpu.icache.tags.power_state.pwrStateResidencyTicks::UNDEFINED   1986576000                       # Cumulative time (in ticks) in various power states (Tick)
system.cpu.iew.idleCycles                           0                       # Number of cycles IEW is idle (Cycle)
system.cpu.iew.squashCycles                       931                       # Number of cycles IEW is squashing (Cycle)
system.cpu.iew.blockCycles                       7972                       # Number of cycles IEW is blocking (Cycle)
system.cpu.iew.unblockCycles                    15103                       # Number of cycles IEW is unblocking (Cycle)
system.cpu.iew.dispatchedInsts               14488419                       # Number of instructions dispatched to IQ (Count)
system.cpu.iew.dispSquashedInsts                  104                       # Number of squashed instructions skipped by dispatch (Count)
system.cpu.iew.dispLoadInsts                  2625626                       # Number of dispatched load instructions (Count)
system.cpu.iew.dispStoreInsts                  133737                       # Number of dispatched store instructions (Count)
system.cpu.iew.dispNonSpecInsts                     4                       # Number of dispatched non-speculative instructions (Count)
system.cpu.iew.iqFullEvents                       153                       # Number of times the IQ has become full, causing a stall (Count)
system.cpu.iew.lsqFullEvents                    14898                       # Number of times the LSQ has become full, causing a stall (Count)
system.cpu.iew.memOrderViolationEvents             17                       # Number of memory order violations (Count)
system.cpu.iew.predictedTakenIncorrect            325                       # Number of branches that were predicted taken incorrectly (Count)
system.cpu.iew.predictedNotTakenIncorrect          701                       # Number of branches that were predicted not taken incorrectly (Count)
system.cpu.iew.branchMispredicts                 1026                       # Number of branch mispredicts detected at execute (Count)
system.cpu.iew.instsToCommit                 14481154                       # Cumulative count of insts sent to commit (Count)
system.cpu.iew.writebackCount                14480714                       # Cumulative count of insts written-back (Count)
system.cpu.iew.producerInst                   6735859                       # Number of instructions producing a value (Count)
system.cpu.iew.consumerInst                   9873747                       # Number of instructions consuming a value (Count)
system.cpu.iew.wbRate                        3.644640                       # Insts written-back per cycle ((Count/Cycle))
system.cpu.iew.wbFanout                      0.682199                       # Average fanout of values written-back ((Count/Count))
system.cpu.interrupts.clk_domain.clock           8000                       # Clock period in ticks (Tick)
system.cpu.itb_walker_cache.blockedCycles::no_mshrs            0                       # number of cycles access was blocked (Cycle)
system.cpu.itb_walker_cache.blockedCycles::no_targets            0                       # number of cycles access was blocked (Cycle)
system.cpu.itb_walker_cache.blockedCauses::no_mshrs            0                       # number of times access was blocked (Count)
system.cpu.itb_walker_cache.blockedCauses::no_targets            0                       # number of times access was blocked (Count)
system.cpu.itb_walker_cache.avgBlocked::no_mshrs          nan                       # average number of cycles each access was blocked ((Cycle/Count))
system.cpu.itb_walker_cache.avgBlocked::no_targets          nan                       # average number of cycles each access was blocked ((Cycle/Count))
system.cpu.itb_walker_cache.replacements            0                       # number of replacements (Count)
system.cpu.itb_walker_cache.power_state.pwrStateResidencyTicks::UNDEFINED   1986576000                       # Cumulative time (in ticks) in various power states (Tick)
system.cpu.itb_walker_cache.tags.tagsInUse            0                       # Average ticks per tags in use ((Tick/Count))
system.cpu.itb_walker_cache.tags.totalRefs            0                       # Total number of references to valid blocks. (Count)
system.cpu.itb_walker_cache.tags.sampledRefs            0                       # Sample count of references to valid blocks. (Count)
system.cpu.itb_walker_cache.tags.avgRefs          nan                       # Average number of references to valid blocks. ((Count/Count))
system.cpu.itb_walker_cache.tags.warmupTick            0                       # The tick when the warmup percentage was hit. (Tick)
system.cpu.itb_walker_cache.tags.tagAccesses            0                       # Number of tag accesses (Count)
system.cpu.itb_walker_cache.tags.dataAccesses            0                       # Number of data accesses (Count)
system.cpu.itb_walker_cache.tags.power_state.pwrStateResidencyTicks::UNDEFINED   1986576000                       # Cumulative time (in ticks) in various power states (Tick)
system.cpu.lsq0.forwLoads                         195                       # Number of loads that had data forwarded from stores (Count)
system.cpu.lsq0.squashedLoads                    2703                       # Number of loads squashed (Count)
system.cpu.lsq0.ignoredResponses                    3                       # Number of memory responses ignored because the instruction is squashed (Count)
system.cpu.lsq0.memOrderViolation                  17                       # Number of memory ordering violations (Count)
system.cpu.lsq0.squashedStores                   1074                       # Number of stores squashed (Count)
system.cpu.lsq0.rescheduledLoads                    0                       # Number of loads that were rescheduled (Count)
system.cpu.lsq0.blockedByCache                   1512                       # Number of times an access to memory failed due to the cache being blocked (Count)
system.cpu.lsq0.loadToUse::samples            2622923                       # Distribution of cycle latency between the first time a load is issued and its completion (Unspecified)
system.cpu.lsq0.loadToUse::mean              5.492455                       # Distribution of cycle latency between the first time a load is issued and its completion (Unspecified)
system.cpu.lsq0.loadToUse::stdev            12.505873                       # Distribution of cycle latency between the first time a load is issued and its completion (Unspecified)
system.cpu.lsq0.loadToUse::0-9                2452491     93.50%     93.50% # Distribution of cycle latency between the first time a load is issued and its completion (Unspecified)
system.cpu.lsq0.loadToUse::10-19                10223      0.39%     93.89% # Distribution of cycle latency between the first time a load is issued and its completion (Unspecified)
system.cpu.lsq0.loadToUse::20-29               142727      5.44%     99.33% # Distribution of cycle latency between the first time a load is issued and its completion (Unspecified)
system.cpu.lsq0.loadToUse::30-39                  815      0.03%     99.36% # Distribution of cycle latency between the first time a load is issued and its completion (Unspecified)
system.cpu.lsq0.loadToUse::40-49                  885      0.03%     99.40% # Distribution of cycle latency between the first time a load is issued and its completion (Unspecified)
system.cpu.lsq0.loadToUse::50-59                  281      0.01%     99.41% # Distribution of cycle latency between the first time a load is issued and its completion (Unspecified)
system.cpu.lsq0.loadToUse::60-69                  774      0.03%     99.44% # Distribution of cycle latency between the first time a load is issued and its completion (Unspecified)
system.cpu.lsq0.loadToUse::70-79                   54      0.00%     99.44% # Distribution of cycle latency between the first time a load is issued and its completion (Unspecified)
system.cpu.lsq0.loadToUse::80-89                  132      0.01%     99.45% # Distribution of cycle latency between the first time a load is issued and its completion (Unspecified)
[...]
system.mem_ctrls.dram.perBankWrBursts::10            0                       # Per bank write bursts (Count)
system.mem_ctrls.dram.perBankWrBursts::11            0                       # Per bank write bursts (Count)
system.mem_ctrls.dram.perBankWrBursts::12            0                       # Per bank write bursts (Count)
system.mem_ctrls.dram.perBankWrBursts::13            0                       # Per bank write bursts (Count)
system.mem_ctrls.dram.perBankWrBursts::14            0                       # Per bank write bursts (Count)
system.mem_ctrls.dram.perBankWrBursts::15            0                       # Per bank write bursts (Count)
system.mem_ctrls.dram.totQLat                25829000                       # Total ticks spent queuing (Tick)
system.mem_ctrls.dram.totBusLat              18815000                       # Total ticks spent in databus transfers (Tick)
system.mem_ctrls.dram.totMemAccLat           96385250                       # Total ticks spent from burst creation until serviced by the DRAM (Tick)
system.mem_ctrls.dram.avgQLat                 6863.94                       # Average queueing delay per DRAM burst ((Tick/Count))
system.mem_ctrls.dram.avgBusLat               5000.00                       # Average bus latency per DRAM burst ((Tick/Count))
system.mem_ctrls.dram.avgMemAccLat           25613.94                       # Average memory access latency per DRAM burst ((Tick/Count))
system.mem_ctrls.dram.readRowHits                3233                       # Number of row buffer hits during reads (Count)
system.mem_ctrls.dram.writeRowHits                  0                       # Number of row buffer hits during writes (Count)
system.mem_ctrls.dram.readRowHitRate            85.92                       # Row buffer hit rate for reads (Ratio)
system.mem_ctrls.dram.writeRowHitRate             nan                       # Row buffer hit rate for writes (Ratio)
system.mem_ctrls.dram.bytesPerActivate::samples          527                       # Bytes accessed per row activation (Byte)
system.mem_ctrls.dram.bytesPerActivate::mean   454.922201                       # Bytes accessed per row activation (Byte)
system.mem_ctrls.dram.bytesPerActivate::gmean   298.035345                       # Bytes accessed per row activation (Byte)
system.mem_ctrls.dram.bytesPerActivate::stdev   355.799308                       # Bytes accessed per row activation (Byte)
system.mem_ctrls.dram.bytesPerActivate::0-127          107     20.30%     20.30% # Bytes accessed per row activation (Byte)
system.mem_ctrls.dram.bytesPerActivate::128-255           93     17.65%     37.95% # Bytes accessed per row activation (Byte)
system.mem_ctrls.dram.bytesPerActivate::256-383           32      6.07%     44.02% # Bytes accessed per row activation (Byte)
system.mem_ctrls.dram.bytesPerActivate::384-511           75     14.23%     58.25% # Bytes accessed per row activation (Byte)
system.mem_ctrls.dram.bytesPerActivate::512-639           73     13.85%     72.11% # Bytes accessed per row activation (Byte)
system.mem_ctrls.dram.bytesPerActivate::640-767            7      1.33%     73.43% # Bytes accessed per row activation (Byte)
system.mem_ctrls.dram.bytesPerActivate::768-895           17      3.23%     76.66% # Bytes accessed per row activation (Byte)
system.mem_ctrls.dram.bytesPerActivate::896-1023           24      4.55%     81.21% # Bytes accessed per row activation (Byte)
system.mem_ctrls.dram.bytesPerActivate::1024-1151           99     18.79%    100.00% # Bytes accessed per row activation (Byte)
system.mem_ctrls.dram.bytesPerActivate::total          527                       # Bytes accessed per row activation (Byte)
system.mem_ctrls.dram.bytesRead                240832                       # Total bytes read (Byte)
system.mem_ctrls.dram.bytesWritten                  0                       # Total bytes written (Byte)
system.mem_ctrls.dram.avgRdBW              121.229694                       # Average DRAM read bandwidth in MiBytes/s ((Byte/Second))
system.mem_ctrls.dram.avgWrBW                       0                       # Average DRAM write bandwidth in MiBytes/s ((Byte/Second))
system.mem_ctrls.dram.peakBW                 12800.00                       # Theoretical peak bandwidth in MiByte/s ((Byte/Second))
system.mem_ctrls.dram.busUtil                    0.95                       # Data bus utilization in percentage (Ratio)
system.mem_ctrls.dram.busUtilRead                0.95                       # Data bus utilization in percentage for reads (Ratio)
system.mem_ctrls.dram.busUtilWrite               0.00                       # Data bus utilization in percentage for writes (Ratio)
system.mem_ctrls.dram.pageHitRate               85.92                       # Row buffer hit rate, read and write combined (Ratio)
system.mem_ctrls.dram.power_state.pwrStateResidencyTicks::UNDEFINED   1986576000                       # Cumulative time (in ticks) in various power states (Tick)
system.mem_ctrls.dram.rank0.actEnergy         2263380                       # Energy for activate commands per rank (pJ) (Joule)
system.mem_ctrls.dram.rank0.preEnergy         1199220                       # Energy for precharge commands per rank (pJ) (Joule)
system.mem_ctrls.dram.rank0.readEnergy       15700860                       # Energy for read commands per rank (pJ) (Joule)
system.mem_ctrls.dram.rank0.writeEnergy             0                       # Energy for write commands per rank (pJ) (Joule)
system.mem_ctrls.dram.rank0.refreshEnergy 156733200.000000                       # Energy for refresh commands per rank (pJ) (Joule)
system.mem_ctrls.dram.rank0.actBackEnergy    293544300                       # Energy for active background per rank (pJ) (Joule)
system.mem_ctrls.dram.rank0.preBackEnergy    515650080                       # Energy for precharge background per rank (pJ) (Joule)
system.mem_ctrls.dram.rank0.actPowerDownEnergy            0                       # Energy for active power-down per rank (pJ) (Joule)
system.mem_ctrls.dram.rank0.prePowerDownEnergy            0                       # Energy for precharge power-down per rank (pJ) (Joule)
system.mem_ctrls.dram.rank0.selfRefreshEnergy            0                       # Energy for self refresh per rank (pJ) (Joule)
system.mem_ctrls.dram.rank0.totalEnergy     985091040                       # Total energy per rank (pJ) (Joule)
system.mem_ctrls.dram.rank0.averagePower   495.873825                       # Core power per rank (mW) (Watt)
system.mem_ctrls.dram.rank0.totalIdleTime            0                       # Total Idle time Per DRAM Rank (Tick)
system.mem_ctrls.dram.rank0.pwrStateTime::IDLE   1337467000                       # Time in different power states (Tick)
system.mem_ctrls.dram.rank0.pwrStateTime::REF     66300000                       # Time in different power states (Tick)
system.mem_ctrls.dram.rank0.pwrStateTime::SREF            0                       # Time in different power states (Tick)
system.mem_ctrls.dram.rank0.pwrStateTime::PRE_PDN            0                       # Time in different power states (Tick)
system.mem_ctrls.dram.rank0.pwrStateTime::ACT    582809000                       # Time in different power states (Tick)
system.mem_ctrls.dram.rank0.pwrStateTime::ACT_PDN            0                       # Time in different power states (Tick)
system.mem_ctrls.dram.rank1.actEnergy         1520820                       # Energy for activate commands per rank (pJ) (Joule)
system.mem_ctrls.dram.rank1.preEnergy          800745                       # Energy for precharge commands per rank (pJ) (Joule)
system.mem_ctrls.dram.rank1.readEnergy       11166960                       # Energy for read commands per rank (pJ) (Joule)
system.mem_ctrls.dram.rank1.writeEnergy             0                       # Energy for write commands per rank (pJ) (Joule)
system.mem_ctrls.dram.rank1.refreshEnergy 156733200.000000                       # Energy for refresh commands per rank (pJ) (Joule)
system.mem_ctrls.dram.rank1.actBackEnergy    147240120                       # Energy for active background per rank (pJ) (Joule)
system.mem_ctrls.dram.rank1.preBackEnergy    638853600                       # Energy for precharge background per rank (pJ) (Joule)
system.mem_ctrls.dram.rank1.actPowerDownEnergy            0                       # Energy for active power-down per rank (pJ) (Joule)
system.mem_ctrls.dram.rank1.prePowerDownEnergy            0                       # Energy for precharge power-down per rank (pJ) (Joule)
system.mem_ctrls.dram.rank1.selfRefreshEnergy            0                       # Energy for self refresh per rank (pJ) (Joule)
system.mem_ctrls.dram.rank1.totalEnergy     956315445                       # Total energy per rank (pJ) (Joule)
system.mem_ctrls.dram.rank1.averagePower   481.388804                       # Core power per rank (mW) (Watt)
system.mem_ctrls.dram.rank1.totalIdleTime            0                       # Total Idle time Per DRAM Rank (Tick)
system.mem_ctrls.dram.rank1.pwrStateTime::IDLE   1659273750                       # Time in different power states (Tick)
system.mem_ctrls.dram.rank1.pwrStateTime::REF     66300000                       # Time in different power states (Tick)
system.mem_ctrls.dram.rank1.pwrStateTime::SREF            0                       # Time in different power states (Tick)
system.mem_ctrls.dram.rank1.pwrStateTime::PRE_PDN            0                       # Time in different power states (Tick)
system.mem_ctrls.dram.rank1.pwrStateTime::ACT    261002250                       # Time in different power states (Tick)
system.mem_ctrls.dram.rank1.pwrStateTime::ACT_PDN            0                       # Time in different power states (Tick)
system.mem_ctrls.power_state.pwrStateResidencyTicks::UNDEFINED   1986576000                       # Cumulative time (in ticks) in various power states (Tick)
system.membus.transDist::ReadResp                3659                       # Transaction distribution (Count)
system.membus.transDist::ReadExReq                104                       # Transaction distribution (Count)
system.membus.transDist::ReadExResp               104                       # Transaction distribution (Count)
system.membus.transDist::ReadSharedReq           3659                       # Transaction distribution (Count)
system.membus.pktCount_system.l2.mem_side_port::system.mem_ctrls.port         7526                       # Packet count per connected requestor and responder (Count)
system.membus.pktCount_system.l2.mem_side_port::total         7526                       # Packet count per connected requestor and responder (Count)
system.membus.pktCount::total                    7526                       # Packet count per connected requestor and responder (Count)
system.membus.pktSize_system.l2.mem_side_port::system.mem_ctrls.port       240832                       # Cumulative packet size per connected requestor and responder (Byte)
system.membus.pktSize_system.l2.mem_side_port::total       240832                       # Cumulative packet size per connected requestor and responder (Byte)
system.membus.pktSize::total                   240832                       # Cumulative packet size per connected requestor and responder (Byte)
system.membus.snoops                                0                       # Total snoops (Count)
system.membus.snoopTraffic                          0                       # Total snoop traffic (Byte)
system.membus.snoopFanout::samples               3763                       # Request fanout histogram (Count)
system.membus.snoopFanout::mean                     0                       # Request fanout histogram (Count)
system.membus.snoopFanout::stdev                    0                       # Request fanout histogram (Count)
system.membus.snoopFanout::underflows               0      0.00%      0.00% # Request fanout histogram (Count)
system.membus.snoopFanout::0                     3763    100.00%    100.00% # Request fanout histogram (Count)
system.membus.snoopFanout::1                        0      0.00%    100.00% # Request fanout histogram (Count)
system.membus.snoopFanout::overflows                0      0.00%    100.00% # Request fanout histogram (Count)
system.membus.snoopFanout::min_value                0                       # Request fanout histogram (Count)
system.membus.snoopFanout::max_value                0                       # Request fanout histogram (Count)
system.membus.snoopFanout::total                 3763                       # Request fanout histogram (Count)
system.membus.power_state.pwrStateResidencyTicks::UNDEFINED   1986576000                       # Cumulative time (in ticks) in various power states (Tick)
system.membus.reqLayer2.occupancy             1881500                       # Layer occupancy (ticks) (Tick)
system.membus.reqLayer2.utilization               0.0                       # Layer utilization (Ratio)
system.membus.respLayer1.occupancy           10179750                       # Layer occupancy (ticks) (Tick)
system.membus.respLayer1.utilization              0.0                       # Layer utilization (Ratio)
system.membus.snoop_filter.totRequests           3763                       # Total number of requests made to the snoop filter. (Count)
system.membus.snoop_filter.hitSingleRequests            0                       # Number of requests hitting in the snoop filter with a single holder of the requested data. (Count)
system.membus.snoop_filter.hitMultiRequests            0                       # Number of requests hitting in the snoop filter with multiple (>1) holders of the requested data. (Count)
system.membus.snoop_filter.totSnoops                0                       # Total number of snoops made to the snoop filter. (Count)
system.membus.snoop_filter.hitSingleSnoops            0                       # Number of snoops hitting in the snoop filter with a single holder of the requested data. (Count)
system.membus.snoop_filter.hitMultiSnoops            0                       # Number of snoops hitting in the snoop filter with multiple (>1) holders of the requested data. (Count)
system.tol2bus.transDist::ReadResp              29996                       # Transaction distribution (Count)
system.tol2bus.transDist::WritebackDirty        15827                       # Transaction distribution (Count)
system.tol2bus.transDist::WritebackClean           19                       # Transaction distribution (Count)
system.tol2bus.transDist::CleanEvict            13110                       # Transaction distribution (Count)
system.tol2bus.transDist::ReadExReq               424                       # Transaction distribution (Count)
system.tol2bus.transDist::ReadExResp              424                       # Transaction distribution (Count)
system.tol2bus.transDist::ReadCleanReq            460                       # Transaction distribution (Count)
system.tol2bus.transDist::ReadSharedReq         29537                       # Transaction distribution (Count)
system.tol2bus.pktCount_system.cpu.icache.mem_side_port::system.l2.cpu_side_port          938                       # Packet count per connected requestor and responder (Count)
system.tol2bus.pktCount_system.cpu.dcache.mem_side_port::system.l2.cpu_side_port        88859                       # Packet count per connected requestor and responder (Count)
system.tol2bus.pktCount::total                  89797                       # Packet count per connected requestor and responder (Count)
system.tol2bus.pktSize_system.cpu.icache.mem_side_port::system.l2.cpu_side_port        30592                       # Cumulative packet size per connected requestor and responder (Byte)
system.tol2bus.pktSize_system.cpu.dcache.mem_side_port::system.l2.cpu_side_port      2930432                       # Cumulative packet size per connected requestor and responder (Byte)
system.tol2bus.pktSize::total                 2961024                       # Cumulative packet size per connected requestor and responder (Byte)
system.tol2bus.snoops                               0                       # Total snoops (Count)
system.tol2bus.snoopTraffic                         0                       # Total snoop traffic (Byte)
system.tol2bus.snoopFanout::samples             30421                       # Request fanout histogram (Count)
system.tol2bus.snoopFanout::mean                    0                       # Request fanout histogram (Count)
system.tol2bus.snoopFanout::stdev                   0                       # Request fanout histogram (Count)
system.tol2bus.snoopFanout::underflows              0      0.00%      0.00% # Request fanout histogram (Count)
system.tol2bus.snoopFanout::0                   30421    100.00%    100.00% # Request fanout histogram (Count)
system.tol2bus.snoopFanout::1                       0      0.00%    100.00% # Request fanout histogram (Count)
system.tol2bus.snoopFanout::2                       0      0.00%    100.00% # Request fanout histogram (Count)
system.tol2bus.snoopFanout::3                       0      0.00%    100.00% # Request fanout histogram (Count)
system.tol2bus.snoopFanout::4                       0      0.00%    100.00% # Request fanout histogram (Count)
system.tol2bus.snoopFanout::overflows               0      0.00%    100.00% # Request fanout histogram (Count)
system.tol2bus.snoopFanout::min_value               0                       # Request fanout histogram (Count)
system.tol2bus.snoopFanout::max_value               0                       # Request fanout histogram (Count)
system.tol2bus.snoopFanout::total               30421                       # Request fanout histogram (Count)
system.tol2bus.power_state.pwrStateResidencyTicks::UNDEFINED   1986576000                       # Cumulative time (in ticks) in various power states (Tick)
system.tol2bus.reqLayer0.occupancy           45534500                       # Layer occupancy (ticks) (Tick)
system.tol2bus.reqLayer0.utilization              0.0                       # Layer utilization (Ratio)
system.tol2bus.respLayer0.occupancy            688500                       # Layer occupancy (ticks) (Tick)
system.tol2bus.respLayer0.utilization             0.0                       # Layer utilization (Ratio)
system.tol2bus.respLayer1.occupancy          44941500                       # Layer occupancy (ticks) (Tick)
system.tol2bus.respLayer1.utilization             0.0                       # Layer utilization (Ratio)
system.tol2bus.snoop_filter.totRequests         59377                       # Total number of requests made to the snoop filter. (Count)
system.tol2bus.snoop_filter.hitSingleRequests        28956                       # Number of requests hitting in the snoop filter with a single holder of the requested data. (Count)
system.tol2bus.snoop_filter.hitMultiRequests            0                       # Number of requests hitting in the snoop filter with multiple (>1) holders of the requested data. (Count)
system.tol2bus.snoop_filter.totSnoops               0                       # Total number of snoops made to the snoop filter. (Count)
system.tol2bus.snoop_filter.hitSingleSnoops            0                       # Number of snoops hitting in the snoop filter with a single holder of the requested data. (Count)
system.tol2bus.snoop_filter.hitMultiSnoops            0                       # Number of snoops hitting in the snoop filter with multiple (>1) holders of the requested data. (Count)
system.voltage_domain.voltage                       1                       # Voltage in Volts (Volt)
system.workload.inst.arm                            0                       # number of arm instructions executed (Count)
system.workload.inst.quiesce                        0                       # number of quiesce instructions executed (Count)

---------- End Simulation Statistics   ----------
