
---------- Begin Simulation Statistics ----------
simSeconds                                   0.025114                       # Number of seconds simulated (Second)
simTicks                                  25114442000                       # Number of ticks simulated (Tick)
finalTick                                 25114442000                       # Number of ticks from beginning of simulation (restored from checkpoints and never reset) (Tick)
simFreq                                  1000000000000                       # The number of ticks per simulated second ((Tick/Second))
hostSeconds                                     49.40                       # Real time elapsed on the host (Second)
hostTickRate                                508418610                       # The number of ticks simulated per host second (ticks/s) ((Tick/Second))
hostMemory                                     717420                       # Number of bytes of host memory used (Byte)
simInsts                                      9995916                       # Number of instructions simulated (Count)
simOps                                       17794157                       # Number of ops (including micro ops) simulated (Count)
hostInstRate                                   202357                       # Simulator instruction rate (inst/s) ((Count/Second))
hostOpRate                                     360225                       # Simulator op (including micro ops) rate (op/s) ((Count/Second))
system.clk_domain.clock                          1000                       # Clock period in ticks (Tick)
system.cpu.numCycles                         25114443                       # Number of cpu cycles simulated (Cycle)
system.cpu.numWorkItemsStarted                      0                       # Number of work items this cpu started (Count)
system.cpu.numWorkItemsCompleted                    0                       # Number of work items this cpu completed (Count)
system.cpu.instsAdded                        17862084                       # Number of instructions added to the IQ (excludes non-spec) (Count)
system.cpu.nonSpecInstsAdded                       30                       # Number of non-speculative instructions added to the IQ (Count)
system.cpu.instsIssued                       17857888                       # Number of instructions issued (Count)
system.cpu.squashedInstsIssued                     53                       # Number of squashed instructions issued (Count)
system.cpu.squashedInstsExamined                67943                       # Number of squashed instructions iterated over during squash; mainly for profiling (Count)
system.cpu.squashedOperandsExamined             47509                       # Number of squashed operands that are examined and possibly removed from graph (Count)
system.cpu.squashedNonSpecRemoved                  18                       # Number of squashed non-spec instructions that were removed (Count)
system.cpu.numIssuedDist::samples            25092476                       # Number of insts issued each cycle (Count)
system.cpu.numIssuedDist::mean               0.711683                       # Number of insts issued each cycle (Count)
system.cpu.numIssuedDist::stdev              1.537620                       # Number of insts issued each cycle (Count)
system.cpu.numIssuedDist::underflows                0      0.00%      0.00% # Number of insts issued each cycle (Count)
system.cpu.numIssuedDist::0                  19439488     77.47%     77.47% # Number of insts issued each cycle (Count)
system.cpu.numIssuedDist::1                   1007729      4.02%     81.49% # Number of insts issued each cycle (Count)
system.cpu.numIssuedDist::2                   1571543      6.26%     87.75% # Number of insts issued each cycle (Count)
system.cpu.numIssuedDist::3                    600895      2.39%     90.15% # Number of insts issued each cycle (Count)
system.cpu.numIssuedDist::4                   1040227      4.15%     94.29% # Number of insts issued each cycle (Count)
system.cpu.numIssuedDist::5                   1018004      4.06%     98.35% # Number of insts issued each cycle (Count)
system.cpu.numIssuedDist::6                    327066      1.30%     99.65% # Number of insts issued each cycle (Count)
system.cpu.numIssuedDist::7                      9128      0.04%     99.69% # Number of insts issued each cycle (Count)
system.cpu.numIssuedDist::8                     78396      0.31%    100.00% # Number of insts issued each cycle (Count)
system.cpu.numIssuedDist::overflows                 0      0.00%    100.00% # Number of insts issued each cycle (Count)
system.cpu.numIssuedDist::min_value                 0                       # Number of insts issued each cycle (Count)
system.cpu.numIssuedDist::max_value                 8                       # Number of insts issued each cycle (Count)
system.cpu.numIssuedDist::total              25092476                       # Number of insts issued each cycle (Count)
system.cpu.statFuBusy::No_OpClass                   0      0.00%      0.00% # attempts to use FU when none available (Count)
system.cpu.statFuBusy::IntAlu                   54369     16.20%     16.20% # attempts to use FU when none available (Count)
system.cpu.statFuBusy::IntMult                      0      0.00%     16.20% # attempts to use FU when none available (Count)
system.cpu.statFuBusy::IntDiv                       0      0.00%     16.20% # attempts to use FU when none available (Count)
system.cpu.statFuBusy::FloatAdd                     0      0.00%     16.20% # attempts to use FU when none available (Count)
system.cpu.statFuBusy::FloatCmp                     0      0.00%     16.20% # attempts to use FU when none available (Count)
system.cpu.statFuBusy::FloatCvt                     0      0.00%     16.20% # attempts to use FU when none available (Count)
system.cpu.statFuBusy::FloatMult                    0      0.00%     16.20% # attempts to use FU when none available (Count)
system.cpu.statFuBusy::FloatMultAcc                 0      0.00%     16.20% # attempts to use FU when none available (Count)
system.cpu.statFuBusy::FloatDiv                     0      0.00%     16.20% # attempts to use FU when none available (Count)
system.cpu.statFuBusy::FloatMisc                    0      0.00%     16.20% # attempts to use FU when none available (Count)
system.cpu.statFuBusy::FloatSqrt                    0      0.00%     16.20% # attempts to use FU when none available (Count)
system.cpu.statFuBusy::SimdAdd                      0      0.00%     16.20% # attempts to use FU when none available (Count)
system.cpu.statFuBusy::SimdAddAcc                   0      0.00%     16.20% # attempts to use FU when none available (Count)
system.cpu.statFuBusy::SimdAlu                  93691     27.93%     44.13% # attempts to use FU when none available (Count)
system.cpu.statFuBusy::SimdCmp                      0      0.00%     44.13% # attempts to use FU when none available (Count)
system.cpu.statFuBusy::SimdCvt                 124910     37.23%     81.36% # attempts to use FU when none available (Count)
system.cpu.statFuBusy::SimdMisc                 62482     18.62%     99.98% # attempts to use FU when none available (Count)
system.cpu.statFuBusy::SimdMult                     0      0.00%     99.98% # attempts to use FU when none available (Count)
system.cpu.statFuBusy::SimdMultAcc                  0      0.00%     99.98% # attempts to use FU when none available (Count)
system.cpu.statFuBusy::SimdShift                    0      0.00%     99.98% # attempts to use FU when none available (Count)
system.cpu.statFuBusy::SimdShiftAcc                 0      0.00%     99.98% # attempts to use FU when none available (Count)
system.cpu.statFuBusy::SimdDiv                      0      0.00%     99.98% # attempts to use FU when none available (Count)
system.cpu.statFuBusy::SimdSqrt                     0      0.00%     99.98% # attempts to use FU when none available (Count)
system.cpu.statFuBusy::SimdFloatAdd                 0      0.00%     99.98% # attempts to use FU when none available (Count)
system.cpu.statFuBusy::SimdFloatAlu                 0      0.00%     99.98% # attempts to use FU when none available (Count)
system.cpu.statFuBusy::SimdFloatCmp                 0      0.00%     99.98% # attempts to use FU when none available (Count)
system.cpu.statFuBusy::SimdFloatCvt                 0      0.00%     99.98% # attempts to use FU when none available (Count)
system.cpu.statFuBusy::SimdFloatDiv                 0      0.00%     99.98% # attempts to use FU when none available (Count)
system.cpu.statFuBusy::SimdFloatMisc                0      0.00%     99.98% # attempts to use FU when none available (Count)
system.cpu.statFuBusy::SimdFloatMult                0      0.00%     99.98% # attempts to use FU when none available (Count)
system.cpu.statFuBusy::SimdFloatMultAcc             0      0.00%     99.98% # attempts to use FU when none available (Count)
system.cpu.statFuBusy::SimdFloatSqrt                0      0.00%     99.98% # attempts to use FU when none available (Count)
system.cpu.statFuBusy::SimdReduceAdd                0      0.00%     99.98% # attempts to use FU when none available (Count)
system.cpu.statFuBusy::SimdReduceAlu                0      0.00%     99.98% # attempts to use FU when none available (Count)
system.cpu.statFuBusy::SimdReduceCmp                0      0.00%     99.98% # attempts to use FU when none available (Count)
system.cpu.statFuBusy::SimdFloatReduceAdd            0      0.00%     99.98% # attempts to use FU when none available (Count)
system.cpu.statFuBusy::SimdFloatReduceCmp            0      0.00%     99.98% # attempts to use FU when none available (Count)
system.cpu.statFuBusy::SimdAes                      0      0.00%     99.98% # attempts to use FU when none available (Count)
system.cpu.statFuBusy::SimdAesMix                   0      0.00%     99.98% # attempts to use FU when none available (Count)
system.cpu.statFuBusy::SimdSha1Hash                 0      0.00%     99.98% # attempts to use FU when none available (Count)
system.cpu.statFuBusy::SimdSha1Hash2                0      0.00%     99.98% # attempts to use FU when none available (Count)
system.cpu.statFuBusy::SimdSha256Hash               0      0.00%     99.98% # attempts to use FU when none available (Count)
system.cpu.statFuBusy::SimdSha256Hash2              0      0.00%     99.98% # attempts to use FU when none available (Count)
system.cpu.statFuBusy::SimdShaSigma2                0      0.00%     99.98% # attempts to use FU when none available (Count)
system.cpu.statFuBusy::SimdShaSigma3                0      0.00%     99.98% # attempts to use FU when none available (Count)
system.cpu.statFuBusy::SimdPredAlu                  0      0.00%     99.98% # attempts to use FU when none available (Count)
system.cpu.statFuBusy::MemRead                     28      0.01%     99.99% # attempts to use FU when none available (Count)
system.cpu.statFuBusy::MemWrite                    18      0.01%    100.00% # attempts to use FU when none available (Count)
system.cpu.statFuBusy::FloatMemRead                 2      0.00%    100.00% # attempts to use FU when none available (Count)
system.cpu.statFuBusy::FloatMemWrite                8      0.00%    100.00% # attempts to use FU when none available (Count)
system.cpu.statFuBusy::IprAccess                    0      0.00%    100.00% # attempts to use FU when none available (Count)
system.cpu.statFuBusy::InstPrefetch                 0      0.00%    100.00% # attempts to use FU when none available (Count)
system.cpu.statIssuedInstType_0::No_OpClass          645      0.00%      0.00% # Number of instructions issued per FU type, per thread (Count)
system.cpu.statIssuedInstType_0::IntAlu      14018951     78.50%     78.51% # Number of instructions issued per FU type, per thread (Count)
system.cpu.statIssuedInstType_0::IntMult         1324      0.01%     78.51% # Number of instructions issued per FU type, per thread (Count)
system.cpu.statIssuedInstType_0::IntDiv            21      0.00%     78.51% # Number of instructions issued per FU type, per thread (Count)
system.cpu.statIssuedInstType_0::FloatAdd          145      0.00%     78.51% # Number of instructions issued per FU type, per thread (Count)
system.cpu.statIssuedInstType_0::FloatCmp            0      0.00%     78.51% # Number of instructions issued per FU type, per thread (Count)
system.cpu.statIssuedInstType_0::FloatCvt            0      0.00%     78.51% # Number of instructions issued per FU type, per thread (Count)
system.cpu.statIssuedInstType_0::FloatMult            0      0.00%     78.51% # Number of instructions issued per FU type, per thread (Count)
system.cpu.statIssuedInstType_0::FloatMultAcc            0      0.00%     78.51% # Number of instructions issued per FU type, per thread (Count)
system.cpu.statIssuedInstType_0::FloatDiv            0      0.00%     78.51% # Number of instructions issued per FU type, per thread (Count)
system.cpu.statIssuedInstType_0::FloatMisc            0      0.00%     78.51% # Number of instructions issued per FU type, per thread (Count)
system.cpu.statIssuedInstType_0::FloatSqrt            0      0.00%     78.51% # Number of instructions issued per FU type, per thread (Count)
system.cpu.statIssuedInstType_0::SimdAdd       499996      2.80%     81.31% # Number of instructions issued per FU type, per thread (Count)
system.cpu.statIssuedInstType_0::SimdAddAcc            0      0.00%     81.31% # Number of instructions issued per FU type, per thread (Count)
system.cpu.statIssuedInstType_0::SimdAlu       125166      0.70%     82.02% # Number of instructions issued per FU type, per thread (Count)
system.cpu.statIssuedInstType_0::SimdCmp            0      0.00%     82.02% # Number of instructions issued per FU type, per thread (Count)
system.cpu.statIssuedInstType_0::SimdCvt       125046      0.70%     82.72% # Number of instructions issued per FU type, per thread (Count)
system.cpu.statIssuedInstType_0::SimdMisc       750207      4.20%     86.92% # Number of instructions issued per FU type, per thread (Count)
system.cpu.statIssuedInstType_0::SimdMult            0      0.00%     86.92% # Number of instructions issued per FU type, per thread (Count)
system.cpu.statIssuedInstType_0::SimdMultAcc            0      0.00%     86.92% # Number of instructions issued per FU type, per thread (Count)
system.cpu.statIssuedInstType_0::SimdShift           13      0.00%     86.92% # Number of instructions issued per FU type, per thread (Count)
system.cpu.statIssuedInstType_0::SimdShiftAcc            0      0.00%     86.92% # Number of instructions issued per FU type, per thread (Count)
system.cpu.statIssuedInstType_0::SimdDiv            0      0.00%     86.92% # Number of instructions issued per FU type, per thread (Count)
system.cpu.statIssuedInstType_0::SimdSqrt            0      0.00%     86.92% # Number of instructions issued per FU type, per thread (Count)
system.cpu.statIssuedInstType_0::SimdFloatAdd            0      0.00%     86.92% # Number of instructions issued per FU type, per thread (Count)
system.cpu.statIssuedInstType_0::SimdFloatAlu            0      0.00%     86.92% # Number of instructions issued per FU type, per thread (Count)
system.cpu.statIssuedInstType_0::SimdFloatCmp            0      0.00%     86.92% # Number of instructions issued per FU type, per thread (Count)
system.cpu.statIssuedInstType_0::SimdFloatCvt            0      0.00%     86.92% # Number of instructions issued per FU type, per thread (Count)
system.cpu.statIssuedInstType_0::SimdFloatDiv            0      0.00%     86.92% # Number of instructions issued per FU type, per thread (Count)
system.cpu.statIssuedInstType_0::SimdFloatMisc            0      0.00%     86.92% # Number of instructions issued per FU type, per thread (Count)
system.cpu.statIssuedInstType_0::SimdFloatMult            0      0.00%     86.92% # Number of instructions issued per FU type, per thread (Count)
system.cpu.statIssuedInstType_0::SimdFloatMultAcc            0      0.00%     86.92% # Number of instructions issued per FU type, per thread (Count)
system.cpu.statIssuedInstType_0::SimdFloatSqrt            0      0.00%     86.92% # Number of instructions issued per FU type, per thread (Count)
system.cpu.statIssuedInstType_0::SimdReduceAdd            0      0.00%     86.92% # Number of instructions issued per FU type, per thread (Count)
system.cpu.statIssuedInstType_0::SimdReduceAlu            0      0.00%     86.92% # Number of instructions issued per FU type, per thread (Count)
system.cpu.statIssuedInstType_0::SimdReduceCmp            0      0.00%     86.92% # Number of instructions issued per FU type, per thread (Count)
system.cpu.statIssuedInstType_0::SimdFloatReduceAdd            0      0.00%     86.92% # Number of instructions issued per FU type, per thread (Count)
system.cpu.statIssuedInstType_0::SimdFloatReduceCmp            0      0.00%     86.92% # Number of instructions issued per FU type, per thread (Count)
system.cpu.statIssuedInstType_0::SimdAes            0      0.00%     86.92% # Number of instructions issued per FU type, per thread (Count)
system.cpu.statIssuedInstType_0::SimdAesMix            0      0.00%     86.92% # Number of instructions issued per FU type, per thread (Count)
system.cpu.statIssuedInstType_0::SimdSha1Hash            0      0.00%     86.92% # Number of instructions issued per FU type, per thread (Count)
system.cpu.statIssuedInstType_0::SimdSha1Hash2            0      0.00%     86.92% # Number of instructions issued per FU type, per thread (Count)
system.cpu.statIssuedInstType_0::SimdSha256Hash            0      0.00%     86.92% # Number of instructions issued per FU type, per thread (Count)
system.cpu.statIssuedInstType_0::SimdSha256Hash2            0      0.00%     86.92% # Number of instructions issued per FU type, per thread (Count)
system.cpu.statIssuedInstType_0::SimdShaSigma2            0      0.00%     86.92% # Number of instructions issued per FU type, per thread (Count)
system.cpu.statIssuedInstType_0::SimdShaSigma3            0      0.00%     86.92% # Number of instructions issued per FU type, per thread (Count)
system.cpu.statIssuedInstType_0::SimdPredAlu            0      0.00%     86.92% # Number of instructions issued per FU type, per thread (Count)
system.cpu.statIssuedInstType_0::MemRead         4187      0.02%     86.94% # Number of instructions issued per FU type, per thread (Count)
system.cpu.statIssuedInstType_0::MemWrite      2206595     12.36%     99.30% # Number of instructions issued per FU type, per thread (Count)
system.cpu.statIssuedInstType_0::FloatMemRead       125068      0.70%    100.00% # Number of instructions issued per FU type, per thread (Count)
system.cpu.statIssuedInstType_0::FloatMemWrite          524      0.00%    100.00% # Number of instructions issued per FU type, per thread (Count)
system.cpu.statIssuedInstType_0::IprAccess            0      0.00%    100.00% # Number of instructions issued per FU type, per thread (Count)
system.cpu.statIssuedInstType_0::InstPrefetch            0      0.00%    100.00% # Number of instructions issued per FU type, per thread (Count)
system.cpu.statIssuedInstType_0::total       17857888                       # Number of instructions issued per FU type, per thread (Count)
system.cpu.issueRate                         0.711060                       # Inst issue rate ((Count/Cycle))
system.cpu.fuBusy                              335508                       # FU busy when requested (Count)
system.cpu.fuBusyRate                        0.018788                       # FU busy rate (busy events/executed inst) ((Count/Count))
system.cpu.intInstQueueReads                 56860108                       # Number of integer instruction queue reads (Count)
system.cpu.intInstQueueWrites                15928464                       # Number of integer instruction queue writes (Count)
system.cpu.intInstQueueWakeupAccesses        15847749                       # Number of integer instruction queue wakeup accesses (Count)
system.cpu.fpInstQueueReads                   4283699                       # Number of floating instruction queue reads (Count)
system.cpu.fpInstQueueWrites                  2001604                       # Number of floating instruction queue writes (Count)
system.cpu.fpInstQueueWakeupAccesses          2001275                       # Number of floating instruction queue wakeup accesses (Count)
system.cpu.vecInstQueueReads                        0                       # Number of vector instruction queue reads (Count)
system.cpu.vecInstQueueWrites                       0                       # Number of vector instruction queue writes (Count)
system.cpu.vecInstQueueWakeupAccesses               0                       # Number of vector instruction queue wakeup accesses (Count)
system.cpu.intAluAccesses                    15910355                       # Number of integer alu accesses (Count)
system.cpu.fpAluAccesses                      2282396                       # Number of floating point alu accesses (Count)
system.cpu.vecAluAccesses                           0                       # Number of vector alu accesses (Count)
system.cpu.numInsts                          17856710                       # Number of executed instructions (Count)
system.cpu.numLoadInsts                        129095                       # Number of load instructions executed (Count)
system.cpu.numSquashedInsts                      1172                       # Number of squashed instructions skipped in execute (Count)
system.cpu.numSwp                                   0                       # Number of swp insts executed (Count)
system.cpu.numNop                                   0                       # Number of nop insts executed (Count)
system.cpu.numRefs                            2336110                       # Number of memory reference insts executed (Count)
system.cpu.numBranches                        2272101                       # Number of branches executed (Count)
system.cpu.numStoreInsts                      2207015                       # Number of stores executed (Count)
system.cpu.numRate                           0.711014                       # Inst execution rate ((Count/Cycle))
system.cpu.timesIdled                             310                       # Number of times that the entire CPU went into an idle state and unscheduled itself (Count)
system.cpu.idleCycles                           21967                       # Total number of cycles that the CPU has spent unscheduled due to idling (Cycle)
system.cpu.committedInsts                     9995916                       # Number of Instructions Simulated (Count)
system.cpu.committedOps                      17794157                       # Number of Ops (including micro ops) Simulated (Count)
system.cpu.cpi                               2.512470                       # CPI: Cycles Per Instruction ((Cycle/Count))
system.cpu.totalCpi                          2.512470                       # CPI: Total CPI of All Threads ((Cycle/Count))
system.cpu.ipc                               0.398015                       # IPC: Instructions Per Cycle ((Count/Cycle))
system.cpu.totalIpc                          0.398015                       # IPC: Total IPC of All Threads ((Count/Cycle))
system.cpu.intRegfileReads                   22742834                       # Number of integer regfile reads (Count)
system.cpu.intRegfileWrites                  11377018                       # Number of integer regfile writes (Count)
system.cpu.fpRegfileReads                     4376523                       # Number of floating regfile reads (Count)
system.cpu.fpRegfileWrites                    2000712                       # Number of floating regfile writes (Count)
system.cpu.ccRegfileReads                    11359525                       # number of cc regfile reads (Count)
system.cpu.ccRegfileWrites                    9085763                       # number of cc regfile writes (Count)
system.cpu.miscRegfileReads                   6881735                       # number of misc regfile reads (Count)
system.cpu.MemDepUnit__0.insertedLoads         129508                       # Number of loads inserted to the mem dependence unit. (Count)
system.cpu.MemDepUnit__0.insertedStores       2207531                       # Number of stores inserted to the mem dependence unit. (Count)
system.cpu.MemDepUnit__0.conflictingLoads           34                       # Number of conflicting loads. (Count)
system.cpu.MemDepUnit__0.conflictingStores           14                       # Number of conflicting stores. (Count)
system.cpu.MemDepUnit__1.insertedLoads              0                       # Number of loads inserted to the mem dependence unit. (Count)
system.cpu.MemDepUnit__1.insertedStores             0                       # Number of stores inserted to the mem dependence unit. (Count)
system.cpu.MemDepUnit__1.conflictingLoads            0                       # Number of conflicting loads. (Count)
system.cpu.MemDepUnit__1.conflictingStores            0                       # Number of conflicting stores. (Count)
system.cpu.MemDepUnit__2.insertedLoads              0                       # Number of loads inserted to the mem dependence unit. (Count)
system.cpu.MemDepUnit__2.insertedStores             0                       # Number of stores inserted to the mem dependence unit. (Count)
system.cpu.MemDepUnit__2.conflictingLoads            0                       # Number of conflicting loads. (Count)
system.cpu.MemDepUnit__2.conflictingStores            0                       # Number of conflicting stores. (Count)
system.cpu.MemDepUnit__3.insertedLoads              0                       # Number of loads inserted to the mem dependence unit. (Count)
system.cpu.MemDepUnit__3.insertedStores             0                       # Number of stores inserted to the mem dependence unit. (Count)
system.cpu.MemDepUnit__3.conflictingLoads            0                       # Number of conflicting loads. (Count)
system.cpu.MemDepUnit__3.conflictingStores            0                       # Number of conflicting stores. (Count)
system.cpu.branchPred.lookups                 2278450                       # Number of BP lookups (Count)
system.cpu.branchPred.condPredicted           2277201                       # Number of conditional branches predicted (Count)
system.cpu.branchPred.condIncorrect              1068                       # Number of conditional branches incorrect (Count)
system.cpu.branchPred.BTBLookups              2274401                       # Number of BTB lookups (Count)
system.cpu.branchPred.BTBHits                 2273701                       # Number of BTB hits (Count)
system.cpu.branchPred.BTBHitRatio            0.999692                       # BTB Hit Ratio (Ratio)
system.cpu.branchPred.RASUsed                     290                       # Number of times the RAS was used to get a target. (Count)
system.cpu.branchPred.RASIncorrect                  0                       # Number of incorrect RAS predictions. (Count)
system.cpu.branchPred.indirectLookups             318                       # Number of indirect predictor lookups. (Count)
system.cpu.branchPred.indirectHits                 10                       # Number of indirect target hits. (Count)
system.cpu.branchPred.indirectMisses              308                       # Number of indirect misses. (Count)
system.cpu.branchPred.indirectMispredicted           91                       # Number of mispredicted indirect branches. (Count)
system.cpu.commit.commitSquashedInsts           68218                       # The number of squashed insts skipped by commit (Count)
system.cpu.commit.commitNonSpecStalls              12                       # The number of times commit has been forced to stall to communicate backwards (Count)
system.cpu.commit.branchMispredicts               951                       # The number of times a branch was mispredicted (Count)
system.cpu.commit.numCommittedDist::samples     25083288                       # Number of insts commited each cycle (Count)
system.cpu.commit.numCommittedDist::mean     0.709403                       # Number of insts commited each cycle (Count)
system.cpu.commit.numCommittedDist::stdev     1.562125                       # Number of insts commited each cycle (Count)
system.cpu.commit.numCommittedDist::underflows            0      0.00%      0.00% # Number of insts commited each cycle (Count)
system.cpu.commit.numCommittedDist::0        19526265     77.85%     77.85% # Number of insts commited each cycle (Count)
system.cpu.commit.numCommittedDist::1          250874      1.00%     78.85% # Number of insts commited each cycle (Count)
system.cpu.commit.numCommittedDist::2         2250504      8.97%     87.82% # Number of insts commited each cycle (Count)
system.cpu.commit.numCommittedDist::3         1477301      5.89%     93.71% # Number of insts commited each cycle (Count)
system.cpu.commit.numCommittedDist::4          725644      2.89%     96.60% # Number of insts commited each cycle (Count)
system.cpu.commit.numCommittedDist::5          287173      1.14%     97.75% # Number of insts commited each cycle (Count)
system.cpu.commit.numCommittedDist::6           42333      0.17%     97.91% # Number of insts commited each cycle (Count)
system.cpu.commit.numCommittedDist::7          167619      0.67%     98.58% # Number of insts commited each cycle (Count)
system.cpu.commit.numCommittedDist::8          355575      1.42%    100.00% # Number of insts commited each cycle (Count)
system.cpu.commit.numCommittedDist::overflows            0      0.00%    100.00% # Number of insts commited each cycle (Count)
system.cpu.commit.numCommittedDist::min_value            0                       # Number of insts commited each cycle (Count)
system.cpu.commit.numCommittedDist::max_value            8                       # Number of insts commited each cycle (Count)
system.cpu.commit.numCommittedDist::total     25083288                       # Number of insts commited each cycle (Count)
system.cpu.commit.instsCommitted              9995916                       # Number of instructions committed (Count)
system.cpu.commit.opsCommitted               17794157                       # Number of ops (including micro ops) committed (Count)
system.cpu.commit.memRefs                     2327019                       # Number of memory references committed (Count)
system.cpu.commit.loads                        127545                       # Number of loads committed (Count)
system.cpu.commit.amos                              0                       # Number of atomic instructions committed (Count)
system.cpu.commit.membars                           8                       # Number of memory barriers committed (Count)
system.cpu.commit.branches                    2264231                       # Number of branches committed (Count)
system.cpu.commit.vectorInstructions                0                       # Number of committed Vector instructions. (Count)
system.cpu.commit.floating                    2001126                       # Number of committed floating point instructions. (Count)
system.cpu.commit.integer                    15918408                       # Number of committed integer instructions. (Count)
system.cpu.commit.functionCalls                   148                       # Number of function calls committed. (Count)
system.cpu.commit.committedInstType_0::No_OpClass          192      0.00%      0.00% # Class of committed instruction (Count)
system.cpu.commit.committedInstType_0::IntAlu     13965436     78.48%     78.48% # Class of committed instruction (Count)
system.cpu.commit.committedInstType_0::IntMult         1004      0.01%     78.49% # Class of committed instruction (Count)
system.cpu.commit.committedInstType_0::IntDiv           21      0.00%     78.49% # Class of committed instruction (Count)
system.cpu.commit.committedInstType_0::FloatAdd          135      0.00%     78.49% # Class of committed instruction (Count)
system.cpu.commit.committedInstType_0::FloatCmp            0      0.00%     78.49% # Class of committed instruction (Count)
system.cpu.commit.committedInstType_0::FloatCvt            0      0.00%     78.49% # Class of committed instruction (Count)
system.cpu.commit.committedInstType_0::FloatMult            0      0.00%     78.49% # Class of committed instruction (Count)
system.cpu.commit.committedInstType_0::FloatMultAcc            0      0.00%     78.49% # Class of committed instruction (Count)
system.cpu.commit.committedInstType_0::FloatDiv            0      0.00%     78.49% # Class of committed instruction (Count)
system.cpu.commit.committedInstType_0::FloatMisc            0      0.00%     78.49% # Class of committed instruction (Count)
system.cpu.commit.committedInstType_0::FloatSqrt            0      0.00%     78.49% # Class of committed instruction (Count)
system.cpu.commit.committedInstType_0::SimdAdd       499996      2.81%     81.30% # Class of committed instruction (Count)
system.cpu.commit.committedInstType_0::SimdAddAcc            0      0.00%     81.30% # Class of committed instruction (Count)
system.cpu.commit.committedInstType_0::SimdAlu       125100      0.70%     82.00% # Class of committed instruction (Count)
system.cpu.commit.committedInstType_0::SimdCmp            0      0.00%     82.00% # Class of committed instruction (Count)
system.cpu.commit.committedInstType_0::SimdCvt       125044      0.70%     82.71% # Class of committed instruction (Count)
system.cpu.commit.committedInstType_0::SimdMisc       750204      4.22%     86.92% # Class of committed instruction (Count)
system.cpu.commit.committedInstType_0::SimdMult            0      0.00%     86.92% # Class of committed instruction (Count)
system.cpu.commit.committedInstType_0::SimdMultAcc            0      0.00%     86.92% # Class of committed instruction (Count)
system.cpu.commit.committedInstType_0::SimdShift            6      0.00%     86.92% # Class of committed instruction (Count)
system.cpu.commit.committedInstType_0::SimdShiftAcc            0      0.00%     86.92% # Class of committed instruction (Count)
system.cpu.commit.committedInstType_0::SimdDiv            0      0.00%     86.92% # Class of committed instruction (Count)
system.cpu.commit.committedInstType_0::SimdSqrt            0      0.00%     86.92% # Class of committed instruction (Count)
system.cpu.commit.committedInstType_0::SimdFloatAdd            0      0.00%     86.92% # Class of committed instruction (Count)
system.cpu.commit.committedInstType_0::SimdFloatAlu            0      0.00%     86.92% # Class of committed instruction (Count)
system.cpu.commit.committedInstType_0::SimdFloatCmp            0      0.00%     86.92% # Class of committed instruction (Count)
system.cpu.commit.committedInstType_0::SimdFloatCvt            0      0.00%     86.92% # Class of committed instruction (Count)
system.cpu.commit.committedInstType_0::SimdFloatDiv            0      0.00%     86.92% # Class of committed instruction (Count)
system.cpu.commit.committedInstType_0::SimdFloatMisc            0      0.00%     86.92% # Class of committed instruction (Count)
system.cpu.commit.committedInstType_0::SimdFloatMult            0      0.00%     86.92% # Class of committed instruction (Count)
system.cpu.commit.committedInstType_0::SimdFloatMultAcc            0      0.00%     86.92% # Class of committed instruction (Count)
system.cpu.commit.committedInstType_0::SimdFloatSqrt            0      0.00%     86.92% # Class of committed instruction (Count)
system.cpu.commit.committedInstType_0::SimdReduceAdd            0      0.00%     86.92% # Class of committed instruction (Count)
system.cpu.commit.committedInstType_0::SimdReduceAlu            0      0.00%     86.92% # Class of committed instruction (Count)
system.cpu.commit.committedInstType_0::SimdReduceCmp            0      0.00%     86.92% # Class of committed instruction (Count)
system.cpu.commit.committedInstType_0::SimdFloatReduceAdd            0      0.00%     86.92% # Class of committed instruction (Count)
system.cpu.commit.committedInstType_0::SimdFloatReduceCmp            0      0.00%     86.92% # Class of committed instruction (Count)
system.cpu.commit.committedInstType_0::SimdAes            0      0.00%     86.92% # Class of committed instruction (Count)
system.cpu.commit.committedInstType_0::SimdAesMix            0      0.00%     86.92% # Class of committed instruction (Count)
system.cpu.commit.committedInstType_0::SimdSha1Hash            0      0.00%     86.92% # Class of committed instruction (Count)
system.cpu.commit.committedInstType_0::SimdSha1Hash2            0      0.00%     86.92% # Class of committed instruction (Count)
system.cpu.commit.committedInstType_0::SimdSha256Hash            0      0.00%     86.92% # Class of committed instruction (Count)
system.cpu.commit.committedInstType_0::SimdSha256Hash2            0      0.00%     86.92% # Class of committed instruction (Count)
system.cpu.commit.committedInstType_0::SimdShaSigma2            0      0.00%     86.92% # Class of committed instruction (Count)
system.cpu.commit.committedInstType_0::SimdShaSigma3            0      0.00%     86.92% # Class of committed instruction (Count)
system.cpu.commit.committedInstType_0::SimdPredAlu            0      0.00%     86.92% # Class of committed instruction (Count)
system.cpu.commit.committedInstType_0::MemRead         2499      0.01%     86.94% # Class of committed instruction (Count)
system.cpu.commit.committedInstType_0::MemWrite      2199016     12.36%     99.29% # Class of committed instruction (Count)
system.cpu.commit.committedInstType_0::FloatMemRead       125046      0.70%    100.00% # Class of committed instruction (Count)
system.cpu.commit.committedInstType_0::FloatMemWrite          458      0.00%    100.00% # Class of committed instruction (Count)
system.cpu.commit.committedInstType_0::IprAccess            0      0.00%    100.00% # Class of committed instruction (Count)
system.cpu.commit.committedInstType_0::InstPrefetch            0      0.00%    100.00% # Class of committed instruction (Count)
system.cpu.commit.committedInstType_0::total     17794157                       # Class of committed instruction (Count)
system.cpu.commit.commitEligibleSamples        355575                       # number cycles where commit BW limit reached (Cycle)
system.cpu.dcache.demandHits::cpu.data        1502126                       # number of demand (read+write) hits (Count)
system.cpu.dcache.demandHits::total           1502126                       # number of demand (read+write) hits (Count)
system.cpu.dcache.overallHits::cpu.data       1502126                       # number of overall hits (Count)
system.cpu.dcache.overallHits::total          1502126                       # number of overall hits (Count)
system.cpu.dcache.demandMisses::cpu.data       841763                       # number of demand (read+write) misses (Count)
system.cpu.dcache.demandMisses::total          841763                       # number of demand (read+write) misses (Count)
system.cpu.dcache.overallMisses::cpu.data       841763                       # number of overall misses (Count)
system.cpu.dcache.overallMisses::total         841763                       # number of overall misses (Count)
system.cpu.dcache.demandMissLatency::cpu.data  23074786999                       # number of demand (read+write) miss ticks (Tick)
system.cpu.dcache.demandMissLatency::total  23074786999                       # number of demand (read+write) miss ticks (Tick)
system.cpu.dcache.overallMissLatency::cpu.data  23074786999                       # number of overall miss ticks (Tick)
system.cpu.dcache.overallMissLatency::total  23074786999                       # number of overall miss ticks (Tick)
system.cpu.dcache.demandAccesses::cpu.data      2343889                       # number of demand (read+write) accesses (Count)
system.cpu.dcache.demandAccesses::total       2343889                       # number of demand (read+write) accesses (Count)
system.cpu.dcache.overallAccesses::cpu.data      2343889                       # number of overall (read+write) accesses (Count)
system.cpu.dcache.overallAccesses::total      2343889                       # number of overall (read+write) accesses (Count)
system.cpu.dcache.demandMissRate::cpu.data     0.359131                       # miss rate for demand accesses (Ratio)
system.cpu.dcache.demandMissRate::total      0.359131                       # miss rate for demand accesses (Ratio)
system.cpu.dcache.overallMissRate::cpu.data     0.359131                       # miss rate for overall accesses (Ratio)
system.cpu.dcache.overallMissRate::total     0.359131                       # miss rate for overall accesses (Ratio)
system.cpu.dcache.demandAvgMissLatency::cpu.data 27412.451009                       # average overall miss latency ((Cycle/Count))
system.cpu.dcache.demandAvgMissLatency::total 27412.451009                       # average overall miss latency ((Cycle/Count))
system.cpu.dcache.overallAvgMissLatency::cpu.data 27412.451009                       # average overall miss latency ((Cycle/Count))
system.cpu.dcache.overallAvgMissLatency::total 27412.451009                       # average overall miss latency ((Cycle/Count))
system.cpu.dcache.blockedCycles::no_mshrs          503                       # number of cycles access was blocked (Cycle)
system.cpu.dcache.blockedCycles::no_targets            0                       # number of cycles access was blocked (Cycle)
system.cpu.dcache.blockedCauses::no_mshrs           18                       # number of times access was blocked (Count)
system.cpu.dcache.blockedCauses::no_targets            0                       # number of times access was blocked (Count)
system.cpu.dcache.avgBlocked::no_mshrs      27.944444                       # average number of cycles each access was blocked ((Cycle/Count))
system.cpu.dcache.avgBlocked::no_targets          nan                       # average number of cycles each access was blocked ((Cycle/Count))
system.cpu.dcache.writebacks::writebacks       777519                       # number of writebacks (Count)
system.cpu.dcache.writebacks::total            777519                       # number of writebacks (Count)
system.cpu.dcache.demandMshrHits::cpu.data        63139                       # number of demand (read+write) MSHR hits (Count)
system.cpu.dcache.demandMshrHits::total         63139                       # number of demand (read+write) MSHR hits (Count)
system.cpu.dcache.overallMshrHits::cpu.data        63139                       # number of overall MSHR hits (Count)
system.cpu.dcache.overallMshrHits::total        63139                       # number of overall MSHR hits (Count)
system.cpu.dcache.demandMshrMisses::cpu.data       778624                       # number of demand (read+write) MSHR misses (Count)
system.cpu.dcache.demandMshrMisses::total       778624                       # number of demand (read+write) MSHR misses (Count)
system.cpu.dcache.overallMshrMisses::cpu.data       778624                       # number of overall MSHR misses (Count)
system.cpu.dcache.overallMshrMisses::total       778624                       # number of overall MSHR misses (Count)
system.cpu.dcache.demandMshrMissLatency::cpu.data  20403842999                       # number of demand (read+write) MSHR miss ticks (Tick)
system.cpu.dcache.demandMshrMissLatency::total  20403842999                       # number of demand (read+write) MSHR miss ticks (Tick)
system.cpu.dcache.overallMshrMissLatency::cpu.data  20403842999                       # number of overall MSHR miss ticks (Tick)
system.cpu.dcache.overallMshrMissLatency::total  20403842999                       # number of overall MSHR miss ticks (Tick)
system.cpu.dcache.demandMshrMissRate::cpu.data     0.332193                       # mshr miss ratio for demand accesses (Ratio)
system.cpu.dcache.demandMshrMissRate::total     0.332193                       # mshr miss ratio for demand accesses (Ratio)
system.cpu.dcache.overallMshrMissRate::cpu.data     0.332193                       # mshr miss ratio for overall accesses (Ratio)
system.cpu.dcache.overallMshrMissRate::total     0.332193                       # mshr miss ratio for overall accesses (Ratio)
system.cpu.dcache.demandAvgMshrMissLatency::cpu.data 26205.001386                       # average overall mshr miss latency ((Cycle/Count))
system.cpu.dcache.demandAvgMshrMissLatency::total 26205.001386                       # average overall mshr miss latency ((Cycle/Count))
system.cpu.dcache.overallAvgMshrMissLatency::cpu.data 26205.001386                       # average overall mshr miss latency ((Cycle/Count))
system.cpu.dcache.overallAvgMshrMissLatency::total 26205.001386                       # average overall mshr miss latency ((Cycle/Count))
system.cpu.dcache.replacements                 777600                       # number of replacements (Count)
system.cpu.dcache.ReadReq.hits::cpu.data        65363                       # number of ReadReq hits (Count)
system.cpu.dcache.ReadReq.hits::total           65363                       # number of ReadReq hits (Count)
system.cpu.dcache.ReadReq.misses::cpu.data        79051                       # number of ReadReq misses (Count)
system.cpu.dcache.ReadReq.misses::total         79051                       # number of ReadReq misses (Count)
system.cpu.dcache.ReadReq.missLatency::cpu.data   1537972000                       # number of ReadReq miss ticks (Tick)
system.cpu.dcache.ReadReq.missLatency::total   1537972000                       # number of ReadReq miss ticks (Tick)
system.cpu.dcache.ReadReq.accesses::cpu.data       144414                       # number of ReadReq accesses(hits+misses) (Count)
system.cpu.dcache.ReadReq.accesses::total       144414                       # number of ReadReq accesses(hits+misses) (Count)
system.cpu.dcache.ReadReq.missRate::cpu.data     0.547392                       # miss rate for ReadReq accesses (Ratio)
system.cpu.dcache.ReadReq.missRate::total     0.547392                       # miss rate for ReadReq accesses (Ratio)
system.cpu.dcache.ReadReq.avgMissLatency::cpu.data 19455.440159                       # average ReadReq miss latency ((Tick/Count))
system.cpu.dcache.ReadReq.avgMissLatency::total 19455.440159                       # average ReadReq miss latency ((Tick/Count))
system.cpu.dcache.ReadReq.mshrHits::cpu.data        63136                       # number of ReadReq MSHR hits (Count)
system.cpu.dcache.ReadReq.mshrHits::total        63136                       # number of ReadReq MSHR hits (Count)
system.cpu.dcache.ReadReq.mshrMisses::cpu.data        15915                       # number of ReadReq MSHR misses (Count)
system.cpu.dcache.ReadReq.mshrMisses::total        15915                       # number of ReadReq MSHR misses (Count)
system.cpu.dcache.ReadReq.mshrMissLatency::cpu.data    392592000                       # number of ReadReq MSHR miss ticks (Tick)
system.cpu.dcache.ReadReq.mshrMissLatency::total    392592000                       # number of ReadReq MSHR miss ticks (Tick)
system.cpu.dcache.ReadReq.mshrMissRate::cpu.data     0.110204                       # mshr miss rate for ReadReq accesses (Ratio)
system.cpu.dcache.ReadReq.mshrMissRate::total     0.110204                       # mshr miss rate for ReadReq accesses (Ratio)
system.cpu.dcache.ReadReq.avgMshrMissLatency::cpu.data 24668.049010                       # average ReadReq mshr miss latency ((Tick/Count))
system.cpu.dcache.ReadReq.avgMshrMissLatency::total 24668.049010                       # average ReadReq mshr miss latency ((Tick/Count))
system.cpu.dcache.WriteReq.hits::cpu.data      1436763                       # number of WriteReq hits (Count)
system.cpu.dcache.WriteReq.hits::total        1436763                       # number of WriteReq hits (Count)
system.cpu.dcache.WriteReq.misses::cpu.data       762712                       # number of WriteReq misses (Count)
system.cpu.dcache.WriteReq.misses::total       762712                       # number of WriteReq misses (Count)
system.cpu.dcache.WriteReq.missLatency::cpu.data  21536814999                       # number of WriteReq miss ticks (Tick)
system.cpu.dcache.WriteReq.missLatency::total  21536814999                       # number of WriteReq miss ticks (Tick)
system.cpu.dcache.WriteReq.accesses::cpu.data      2199475                       # number of WriteReq accesses(hits+misses) (Count)
system.cpu.dcache.WriteReq.accesses::total      2199475                       # number of WriteReq accesses(hits+misses) (Count)
system.cpu.dcache.WriteReq.missRate::cpu.data     0.346770                       # miss rate for WriteReq accesses (Ratio)
system.cpu.dcache.WriteReq.missRate::total     0.346770                       # miss rate for WriteReq accesses (Ratio)
system.cpu.dcache.WriteReq.avgMissLatency::cpu.data 28237.152423                       # average WriteReq miss latency ((Tick/Count))
system.cpu.dcache.WriteReq.avgMissLatency::total 28237.152423                       # average WriteReq miss latency ((Tick/Count))
system.cpu.dcache.WriteReq.mshrHits::cpu.data            3                       # number of WriteReq MSHR hits (Count)
system.cpu.dcache.WriteReq.mshrHits::total            3                       # number of WriteReq MSHR hits (Count)
system.cpu.dcache.WriteReq.mshrMisses::cpu.data       762709                       # number of WriteReq MSHR misses (Count)
system.cpu.dcache.WriteReq.mshrMisses::total       762709                       # number of WriteReq MSHR misses (Count)
system.cpu.dcache.WriteReq.mshrMissLatency::cpu.data  20011250999                       # number of WriteReq MSHR miss ticks (Tick)
system.cpu.dcache.WriteReq.mshrMissLatency::total  20011250999                       # number of WriteReq MSHR miss ticks (Tick)
system.cpu.dcache.WriteReq.mshrMissRate::cpu.data     0.346769                       # mshr miss rate for WriteReq accesses (Ratio)
system.cpu.dcache.WriteReq.mshrMissRate::total     0.346769                       # mshr miss rate for WriteReq accesses (Ratio)
system.cpu.dcache.WriteReq.avgMshrMissLatency::cpu.data 26237.072067                       # average WriteReq mshr miss latency ((Tick/Count))
system.cpu.dcache.WriteReq.avgMshrMissLatency::total 26237.072067                       # average WriteReq mshr miss latency ((Tick/Count))
system.cpu.dcache.power_state.pwrStateResidencyTicks::UNDEFINED  25114442000                       # Cumulative time (in ticks) in various power states (Tick)
system.cpu.dcache.tags.tagsInUse          1019.981378                       # Average ticks per tags in use ((Tick/Count))
system.cpu.dcache.tags.totalRefs              2280750                       # Total number of references to valid blocks. (Count)
system.cpu.dcache.tags.sampledRefs             778624                       # Sample count of references to valid blocks. (Count)
system.cpu.dcache.tags.avgRefs               2.929206                       # Average number of references to valid blocks. ((Count/Count))
system.cpu.dcache.tags.warmupTick              222000                       # The tick when the warmup percentage was hit. (Tick)
system.cpu.dcache.tags.occupancies::cpu.data  1019.981378                       # Average occupied blocks per tick, per requestor ((Count/Tick))
system.cpu.dcache.tags.avgOccs::cpu.data     0.996076                       # Average percentage of cache occupancy ((Ratio/Tick))
system.cpu.dcache.tags.avgOccs::total        0.996076                       # Average percentage of cache occupancy ((Ratio/Tick))
system.cpu.dcache.tags.occupanciesTaskId::1024         1024                       # Occupied blocks per task id (Count)
system.cpu.dcache.tags.ageTaskId_1024::0          161                       # Occupied blocks per task id, per block age (Count)
system.cpu.dcache.tags.ageTaskId_1024::1          863                       # Occupied blocks per task id, per block age (Count)
system.cpu.dcache.tags.ratioOccsTaskId::1024            1                       # Ratio of occupied blocks and all blocks, per task id (Ratio)
system.cpu.dcache.tags.tagAccesses            5466402                       # Number of tag accesses (Count)
system.cpu.dcache.tags.dataAccesses           5466402                       # Number of data accesses (Count)
system.cpu.dcache.tags.power_state.pwrStateResidencyTicks::UNDEFINED  25114442000                       # Cumulative time (in ticks) in various power states (Tick)
system.cpu.decode.idleCycles                   683031                       # Number of cycles decode is idle (Cycle)
system.cpu.decode.blockedCycles              22140066                       # Number of cycles decode is blocked (Cycle)
system.cpu.decode.runCycles                    699343                       # Number of cycles decode is running (Cycle)
system.cpu.decode.unblockCycles               1568816                       # Number of cycles decode is unblocking (Cycle)
system.cpu.decode.squashCycles                   1220                       # Number of cycles decode is squashing (Cycle)
system.cpu.decode.branchResolved              2270628                       # Number of times decode resolved a branch (Count)
system.cpu.decode.branchMispred                   228                       # Number of times decode detected a branch misprediction (Count)
system.cpu.decode.decodedInsts               17873104                       # Number of instructions handled by decode (Count)
system.cpu.decode.squashedInsts                  1043                       # Number of squashed instructions handled by decode (Count)
system.cpu.dtb_walker_cache.blockedCycles::no_mshrs            0                       # number of cycles access was blocked (Cycle)
system.cpu.dtb_walker_cache.blockedCycles::no_targets            0                       # number of cycles access was blocked (Cycle)
system.cpu.dtb_walker_cache.blockedCauses::no_mshrs            0                       # number of times access was blocked (Count)
system.cpu.dtb_walker_cache.blockedCauses::no_targets            0                       # number of times access was blocked (Count)
system.cpu.dtb_walker_cache.avgBlocked::no_mshrs          nan                       # average number of cycles each access was blocked ((Cycle/Count))
system.cpu.dtb_walker_cache.avgBlocked::no_targets          nan                       # average number of cycles each access was blocked ((Cycle/Count))
system.cpu.dtb_walker_cache.replacements            0                       # number of replacements (Count)
system.cpu.dtb_walker_cache.power_state.pwrStateResidencyTicks::UNDEFINED  25114442000                       # Cumulative time (in ticks) in various power states (Tick)
system.cpu.dtb_walker_cache.tags.tagsInUse            0                       # Average ticks per tags in use ((Tick/Count))
system.cpu.dtb_walker_cache.tags.totalRefs            0                       # Total number of references to valid blocks. (Count)
system.cpu.dtb_walker_cache.tags.sampledRefs            0                       # Sample count of references to valid blocks. (Count)
system.cpu.dtb_walker_cache.tags.avgRefs          nan                       # Average number of references to valid blocks. ((Count/Count))
system.cpu.dtb_walker_cache.tags.warmupTick            0                       # The tick when the warmup percentage was hit. (Tick)
system.cpu.dtb_walker_cache.tags.tagAccesses            0                       # Number of tag accesses (Count)
system.cpu.dtb_walker_cache.tags.dataAccesses            0                       # Number of data accesses (Count)
system.cpu.dtb_walker_cache.tags.power_state.pwrStateResidencyTicks::UNDEFINED  25114442000                       # Cumulative time (in ticks) in various power states (Tick)
system.cpu.fetch.icacheStallCycles             143514                       # Number of cycles fetch is stalled on an Icache miss (Cycle)
system.cpu.fetch.insts                       10055092                       # Number of instructions fetch has processed (Count)
system.cpu.fetch.branches                     2278450                       # Number of branches that fetch encountered (Count)
system.cpu.fetch.predictedBranches            2274001                       # Number of branches that fetch has predicted taken (Count)
system.cpu.fetch.cycles                      24946741                       # Number of cycles fetch has run and was not squashing or blocked (Cycle)
system.cpu.fetch.squashCycles                    2878                       # Number of cycles fetch has spent squashing (Cycle)
system.cpu.fetch.miscStallCycles                  112                       # Number of cycles fetch has spent waiting on interrupts, or bad addresses, or out of MSHRs (Cycle)
system.cpu.fetch.pendingTrapStallCycles           653                       # Number of stall cycles due to pending traps (Cycle)
system.cpu.fetch.pendingQuiesceStallCycles            4                       # Number of stall cycles due to pending quiesce instructions (Cycle)
system.cpu.fetch.icacheWaitRetryStallCycles           13                       # Number of stall cycles due to full MSHR (Cycle)
system.cpu.fetch.cacheLines                    130629                       # Number of cache lines fetched (Count)
system.cpu.fetch.icacheSquashes                   413                       # Number of outstanding Icache misses that were squashed (Count)
system.cpu.fetch.nisnDist::samples           25092476                       # Number of instructions fetched each cycle (Total) (Count)
system.cpu.fetch.nisnDist::mean              0.713360                       # Number of instructions fetched each cycle (Total) (Count)
system.cpu.fetch.nisnDist::stdev             1.997277                       # Number of instructions fetched each cycle (Total) (Count)
system.cpu.fetch.nisnDist::underflows               0      0.00%      0.00% # Number of instructions fetched each cycle (Total) (Count)
system.cpu.fetch.nisnDist::0                 21753614     86.69%     86.69% # Number of instructions fetched each cycle (Total) (Count)
system.cpu.fetch.nisnDist::1                   346945      1.38%     88.08% # Number of instructions fetched each cycle (Total) (Count)
system.cpu.fetch.nisnDist::2                   257367      1.03%     89.10% # Number of instructions fetched each cycle (Total) (Count)
system.cpu.fetch.nisnDist::3                   205145      0.82%     89.92% # Number of instructions fetched each cycle (Total) (Count)
system.cpu.fetch.nisnDist::4                   252346      1.01%     90.93% # Number of instructions fetched each cycle (Total) (Count)
system.cpu.fetch.nisnDist::5                   193679      0.77%     91.70% # Number of instructions fetched each cycle (Total) (Count)
system.cpu.fetch.nisnDist::6                   378473      1.51%     93.21% # Number of instructions fetched each cycle (Total) (Count)
system.cpu.fetch.nisnDist::7                  1465030      5.84%     99.04% # Number of instructions fetched each cycle (Total) (Count)
system.cpu.fetch.nisnDist::8                   239877      0.96%    100.00% # Number of instructions fetched each cycle (Total) (Count)
system.cpu.fetch.nisnDist::overflows                0      0.00%    100.00% # Number of instructions fetched each cycle (Total) (Count)
system.cpu.fetch.nisnDist::min_value                0                       # Number of instructions fetched each cycle (Total) (Count)
system.cpu.fetch.nisnDist::max_value                8                       # Number of instructions fetched each cycle (Total) (Count)
system.cpu.fetch.nisnDist::total             25092476                       # Number of instructions fetched each cycle (Total) (Count)
system.cpu.fetch.branchRate                  0.090723                       # Number of branch fetches per cycle (Ratio)
system.cpu.fetch.rate                        0.400371                       # Number of inst fetches per cycle ((Count/Cycle))
system.cpu.icache.demandHits::cpu.inst         130019                       # number of demand (read+write) hits (Count)
system.cpu.icache.demandHits::total            130019                       # number of demand (read+write) hits (Count)
system.cpu.icache.overallHits::cpu.inst        130019                       # number of overall hits (Count)
system.cpu.icache.overallHits::total           130019                       # number of overall hits (Count)
system.cpu.icache.demandMisses::cpu.inst          610                       # number of demand (read+write) misses (Count)
system.cpu.icache.demandMisses::total             610                       # number of demand (read+write) misses (Count)
system.cpu.icache.overallMisses::cpu.inst          610                       # number of overall misses (Count)
system.cpu.icache.overallMisses::total            610                       # number of overall misses (Count)
system.cpu.icache.demandMissLatency::cpu.inst     59885000                       # number of demand (read+write) miss ticks (Tick)
system.cpu.icache.demandMissLatency::total     59885000                       # number of demand (read+write) miss ticks (Tick)
system.cpu.icache.overallMissLatency::cpu.inst     59885000                       # number of overall miss ticks (Tick)
system.cpu.icache.overallMissLatency::total     59885000                       # number of overall miss ticks (Tick)
system.cpu.icache.demandAccesses::cpu.inst       130629                       # number of demand (read+write) accesses (Count)
system.cpu.icache.demandAccesses::total        130629                       # number of demand (read+write) accesses (Count)
system.cpu.icache.overallAccesses::cpu.inst       130629                       # number of overall (read+write) accesses (Count)
system.cpu.icache.overallAccesses::total       130629                       # number of overall (read+write) accesses (Count)
system.cpu.icache.demandMissRate::cpu.inst     0.004670                       # miss rate for demand accesses (Ratio)
system.cpu.icache.demandMissRate::total      0.004670                       # miss rate for demand accesses (Ratio)
system.cpu.icache.overallMissRate::cpu.inst     0.004670                       # miss rate for overall accesses (Ratio)
system.cpu.icache.overallMissRate::total     0.004670                       # miss rate for overall accesses (Ratio)
system.cpu.icache.demandAvgMissLatency::cpu.inst 98172.131148                       # average overall miss latency ((Cycle/Count))
system.cpu.icache.demandAvgMissLatency::total 98172.131148                       # average overall miss latency ((Cycle/Count))
system.cpu.icache.overallAvgMissLatency::cpu.inst 98172.131148                       # average overall miss latency ((Cycle/Count))
system.cpu.icache.overallAvgMissLatency::total 98172.131148                       # average overall miss latency ((Cycle/Count))
system.cpu.icache.blockedCycles::no_mshrs           61                       # number of cycles access was blocked (Cycle)
system.cpu.icache.blockedCycles::no_targets            0                       # number of cycles access was blocked (Cycle)
system.cpu.icache.blockedCauses::no_mshrs            2                       # number of times access was blocked (Count)
system.cpu.icache.blockedCauses::no_targets            0                       # number of times access was blocked (Count)
system.cpu.icache.avgBlocked::no_mshrs      30.500000                       # average number of cycles each access was blocked ((Cycle/Count))
system.cpu.icache.avgBlocked::no_targets          nan                       # average number of cycles each access was blocked ((Cycle/Count))
system.cpu.icache.writebacks::writebacks           19                       # number of writebacks (Count)
system.cpu.icache.writebacks::total                19                       # number of writebacks (Count)
system.cpu.icache.demandMshrHits::cpu.inst          129                       # number of demand (read+write) MSHR hits (Count)
system.cpu.icache.demandMshrHits::total           129                       # number of demand (read+write) MSHR hits (Count)
system.cpu.icache.overallMshrHits::cpu.inst          129                       # number of overall MSHR hits (Count)
system.cpu.icache.overallMshrHits::total          129                       # number of overall MSHR hits (Count)
system.cpu.icache.demandMshrMisses::cpu.inst          481                       # number of demand (read+write) MSHR misses (Count)
system.cpu.icache.demandMshrMisses::total          481                       # number of demand (read+write) MSHR misses (Count)
system.cpu.icache.overallMshrMisses::cpu.inst          481                       # number of overall MSHR misses (Count)
system.cpu.icache.overallMshrMisses::total          481                       # number of overall MSHR misses (Count)
system.cpu.icache.demandMshrMissLatency::cpu.inst     49412000                       # number of demand (read+write) MSHR miss ticks (Tick)
system.cpu.icache.demandMshrMissLatency::total     49412000                       # number of demand (read+write) MSHR miss ticks (Tick)
system.cpu.icache.overallMshrMissLatency::cpu.inst     49412000                       # number of overall MSHR miss ticks (Tick)
system.cpu.icache.overallMshrMissLatency::total     49412000                       # number of overall MSHR miss ticks (Tick)
system.cpu.icache.demandMshrMissRate::cpu.inst     0.003682                       # mshr miss ratio for demand accesses (Ratio)
system.cpu.icache.demandMshrMissRate::total     0.003682                       # mshr miss ratio for demand accesses (Ratio)
system.cpu.icache.overallMshrMissRate::cpu.inst     0.003682                       # mshr miss ratio for overall accesses (Ratio)
system.cpu.icache.overallMshrMissRate::total     0.003682                       # mshr miss ratio for overall accesses (Ratio)
system.cpu.icache.demandAvgMshrMissLatency::cpu.inst 102727.650728                       # average overall mshr miss latency ((Cycle/Count))
system.cpu.icache.demandAvgMshrMissLatency::total 102727.650728                       # average overall mshr miss latency ((Cycle/Count))
system.cpu.icache.overallAvgMshrMissLatency::cpu.inst 102727.650728                       # average overall mshr miss latency ((Cycle/Count))
system.cpu.icache.overallAvgMshrMissLatency::total 102727.650728                       # average overall mshr miss latency ((Cycle/Count))
system.cpu.icache.replacements                     19                       # number of replacements (Count)
system.cpu.icache.ReadReq.hits::cpu.inst       130019                       # number of ReadReq hits (Count)
system.cpu.icache.ReadReq.hits::total          130019                       # number of ReadReq hits (Count)
system.cpu.icache.ReadReq.misses::cpu.inst          610                       # number of ReadReq misses (Count)
system.cpu.icache.ReadReq.misses::total           610                       # number of ReadReq misses (Count)
system.cpu.icache.ReadReq.missLatency::cpu.inst     59885000                       # number of ReadReq miss ticks (Tick)
system.cpu.icache.ReadReq.missLatency::total     59885000                       # number of ReadReq miss ticks (Tick)
system.cpu.icache.ReadReq.accesses::cpu.inst       130629                       # number of ReadReq accesses(hits+misses) (Count)
system.cpu.icache.ReadReq.accesses::total       130629                       # number of ReadReq accesses(hits+misses) (Count)
system.cpu.icache.ReadReq.missRate::cpu.inst     0.004670                       # miss rate for ReadReq accesses (Ratio)
system.cpu.icache.ReadReq.missRate::total     0.004670                       # miss rate for ReadReq accesses (Ratio)
system.cpu.icache.ReadReq.avgMissLatency::cpu.inst 98172.131148                       # average ReadReq miss latency ((Tick/Count))
system.cpu.icache.ReadReq.avgMissLatency::total 98172.131148                       # average ReadReq miss latency ((Tick/Count))
system.cpu.icache.ReadReq.mshrHits::cpu.inst          129                       # number of ReadReq MSHR hits (Count)
system.cpu.icache.ReadReq.mshrHits::total          129                       # number of ReadReq MSHR hits (Count)
system.cpu.icache.ReadReq.mshrMisses::cpu.inst          481                       # number of ReadReq MSHR misses (Count)
system.cpu.icache.ReadReq.mshrMisses::total          481                       # number of ReadReq MSHR misses (Count)
system.cpu.icache.ReadReq.mshrMissLatency::cpu.inst     49412000                       # number of ReadReq MSHR miss ticks (Tick)
system.cpu.icache.ReadReq.mshrMissLatency::total     49412000                       # number of ReadReq MSHR miss ticks (Tick)
system.cpu.icache.ReadReq.mshrMissRate::cpu.inst     0.003682                       # mshr miss rate for ReadReq accesses (Ratio)
system.cpu.icache.ReadReq.mshrMissRate::total     0.003682                       # mshr miss rate for ReadReq accesses (Ratio)
system.cpu.icache.ReadReq.avgMshrMissLatency::cpu.inst 102727.650728                       # average ReadReq mshr miss latency ((Tick/Count))
system.cpu.icache.ReadReq.avgMshrMissLatency::total 102727.650728                       # average ReadReq mshr miss latency ((Tick/Count))
system.cpu.icache.power_state.pwrStateResidencyTicks::UNDEFINED  25114442000                       # Cumulative time (in ticks) in various power states (Tick)
system.cpu.icache.tags.tagsInUse           420.642955                       # Average ticks per tags in use ((Tick/Count))
system.cpu.icache.tags.totalRefs               130500                       # Total number of references to valid blocks. (Count)
system.cpu.icache.tags.sampledRefs                481                       # Sample count of references to valid blocks. (Count)
system.cpu.icache.tags.avgRefs             271.309771                       # Average number of references to valid blocks. ((Count/Count))
system.cpu.icache.tags.warmupTick              107000                       # The tick when the warmup percentage was hit. (Tick)
system.cpu.icache.tags.occupancies::cpu.inst   420.642955                       # Average occupied blocks per tick, per requestor ((Count/Tick))
system.cpu.icache.tags.avgOccs::cpu.inst     0.410784                       # Average percentage of cache occupancy ((Ratio/Tick))
system.cpu.icache.tags.avgOccs::total        0.410784                       # Average percentage of cache occupancy ((Ratio/Tick))
system.cpu.icache.tags.occupanciesTaskId::1024          462                       # Occupied blocks per task id (Count)
system.cpu.icache.tags.ageTaskId_1024::0           45                       # Occupied blocks per task id, per block age (Count)
system.cpu.icache.tags.ageTaskId_1024::2            1                       # Occupied blocks per task id, per block age (Count)
system.cpu.icache.tags.ageTaskId_1024::4          416                       # Occupied blocks per task id, per block age (Count)
system.cpu.icache.tags.ratioOccsTaskId::1024     0.451172                       # Ratio of occupied blocks and all blocks, per task id (Ratio)
system.cpu.icache.tags.tagAccesses             261739                       # Number of tag accesses (Count)
system.cpu.icache.tags.dataAccesses            261739                       # Number of data accesses (Count)
system.cpu.icache.tags.power_state.pwrStateResidencyTicks::UNDEFINED  25114442000                       # Cumulative time (in ticks) in various power states (Tick)
system.cpu.iew.idleCycles                           0                       # Number of cycles IEW is idle (Cycle)
system.cpu.iew.squashCycles                      1220                       # Number of cycles IEW is squashing (Cycle)
system.cpu.iew.blockCycles                     149045                       # Number of cycles IEW is blocking (Cycle)
system.cpu.iew.unblockCycles                  6539537                       # Number of cycles IEW is unblocking (Cycle)
system.cpu.iew.dispatchedInsts               17862114                       # Number of instructions dispatched to IQ (Count)
system.cpu.iew.dispSquashedInsts                   76                       # Number of squashed instructions skipped by dispatch (Count)
system.cpu.iew.dispLoadInsts                   129508                       # Number of dispatched load instructions (Count)
system.cpu.iew.dispStoreInsts                 2207531                       # Number of dispatched store instructions (Count)
system.cpu.iew.dispNonSpecInsts                    10                       # Number of dispatched non-speculative instructions (Count)
system.cpu.iew.iqFullEvents                     31233                       # Number of times the IQ has become full, causing a stall (Count)
system.cpu.iew.lsqFullEvents                  6492775                       # Number of times the LSQ has become full, causing a stall (Count)
system.cpu.iew.memOrderViolationEvents             12                       # Number of memory order violations (Count)
system.cpu.iew.predictedTakenIncorrect            372                       # Number of branches that were predicted taken incorrectly (Count)
system.cpu.iew.predictedNotTakenIncorrect          727                       # Number of branches that were predicted not taken incorrectly (Count)
system.cpu.iew.branchMispredicts                 1099                       # Number of branch mispredicts detected at execute (Count)
system.cpu.iew.instsToCommit                 17856260                       # Cumulative count of insts sent to commit (Count)
system.cpu.iew.writebackCount                17849024                       # Cumulative count of insts written-back (Count)
system.cpu.iew.producerInst                  11904310                       # Number of instructions producing a value (Count)
system.cpu.iew.consumerInst                  18133594                       # Number of instructions consuming a value (Count)
system.cpu.iew.wbRate                        0.710708                       # Insts written-back per cycle ((Count/Cycle))
system.cpu.iew.wbFanout                      0.656478                       # Average fanout of values written-back ((Count/Count))
system.cpu.interrupts.clk_domain.clock          16000                       # Clock period in ticks (Tick)
system.cpu.itb_walker_cache.blockedCycles::no_mshrs            0                       # number of cycles access was blocked (Cycle)
system.cpu.itb_walker_cache.blockedCycles::no_targets            0                       # number of cycles access was blocked (Cycle)
system.cpu.itb_walker_cache.blockedCauses::no_mshrs            0                       # number of times access was blocked (Count)
system.cpu.itb_walker_cache.blockedCauses::no_targets            0                       # number of times access was blocked (Count)
system.cpu.itb_walker_cache.avgBlocked::no_mshrs          nan                       # average number of cycles each access was blocked ((Cycle/Count))
system.cpu.itb_walker_cache.avgBlocked::no_targets          nan                       # average number of cycles each access was blocked ((Cycle/Count))
system.cpu.itb_walker_cache.replacements            0                       # number of replacements (Count)
system.cpu.itb_walker_cache.power_state.pwrStateResidencyTicks::UNDEFINED  25114442000                       # Cumulative time (in ticks) in various power states (Tick)
system.cpu.itb_walker_cache.tags.tagsInUse            0                       # Average ticks per tags in use ((Tick/Count))
system.cpu.itb_walker_cache.tags.totalRefs            0                       # Total number of references to valid blocks. (Count)
system.cpu.itb_walker_cache.tags.sampledRefs            0                       # Sample count of references to valid blocks. (Count)
system.cpu.itb_walker_cache.tags.avgRefs          nan                       # Average number of references to valid blocks. ((Count/Count))
system.cpu.itb_walker_cache.tags.warmupTick            0                       # The tick when the warmup percentage was hit. (Tick)
system.cpu.itb_walker_cache.tags.tagAccesses            0                       # Number of tag accesses (Count)
system.cpu.itb_walker_cache.tags.dataAccesses            0                       # Number of data accesses (Count)
system.cpu.itb_walker_cache.tags.power_state.pwrStateResidencyTicks::UNDEFINED  25114442000                       # Cumulative time (in ticks) in various power states (Tick)
system.cpu.lsq0.forwLoads                         192                       # Number of loads that had data forwarded from stores (Count)
system.cpu.lsq0.squashedLoads                    1963                       # Number of loads squashed (Count)
system.cpu.lsq0.ignoredResponses                    2                       # Number of memory responses ignored because the instruction is squashed (Count)
system.cpu.lsq0.memOrderViolation                  12                       # Number of memory ordering violations (Count)
system.cpu.lsq0.squashedStores                   8057                       # Number of stores squashed (Count)
system.cpu.lsq0.rescheduledLoads                    0                       # Number of loads that were rescheduled (Count)
system.cpu.lsq0.blockedByCache                     14                       # Number of times an access to memory failed due to the cache being blocked (Count)
system.cpu.lsq0.loadToUse::samples             127545                       # Distribution of cycle latency between the first time a load is issued and its completion (Unspecified)
system.cpu.lsq0.loadToUse::mean             14.214026                       # Distribution of cycle latency between the first time a load is issued and its completion (Unspecified)
system.cpu.lsq0.loadToUse::stdev             9.688702                       # Distribution of cycle latency between the first time a load is issued and its completion (Unspecified)
system.cpu.lsq0.loadToUse::0-9                  48757     38.23%     38.23% # Distribution of cycle latency between the first time a load is issued and its completion (Unspecified)
system.cpu.lsq0.loadToUse::10-19                31398     24.62%     62.84% # Distribution of cycle latency between the first time a load is issued and its completion (Unspecified)
system.cpu.lsq0.loadToUse::20-29                47258     37.05%     99.90% # Distribution of cycle latency between the first time a load is issued and its completion (Unspecified)
system.cpu.lsq0.loadToUse::30-39                    4      0.00%     99.90% # Distribution of cycle latency between the first time a load is issued and its completion (Unspecified)
system.cpu.lsq0.loadToUse::40-49                    1      0.00%     99.90% # Distribution of cycle latency between the first time a load is issued and its completion (Unspecified)
system.cpu.lsq0.loadToUse::50-59                    2      0.00%     99.90% # Distribution of cycle latency between the first time a load is issued and its completion (Unspecified)
system.cpu.lsq0.loadToUse::60-69                    3      0.00%     99.90% # Distribution of cycle latency between the first time a load is issued and its completion (Unspecified)
system.cpu.lsq0.loadToUse::70-79                    3      0.00%     99.91% # Distribution of cycle latency between the first time a load is issued and its completion (Unspecified)
system.cpu.lsq0.loadToUse::80-89                    2      0.00%     99.91% # Distribution of cycle latency between the first time a load is issued and its completion (Unspecified)
[...]
system.mem_ctrls.dram.perBankWrBursts::10            0                       # Per bank write bursts (Count)
system.mem_ctrls.dram.perBankWrBursts::11            0                       # Per bank write bursts (Count)
system.mem_ctrls.dram.perBankWrBursts::12            0                       # Per bank write bursts (Count)
system.mem_ctrls.dram.perBankWrBursts::13            0                       # Per bank write bursts (Count)
system.mem_ctrls.dram.perBankWrBursts::14            0                       # Per bank write bursts (Count)
system.mem_ctrls.dram.perBankWrBursts::15            0                       # Per bank write bursts (Count)
system.mem_ctrls.dram.totQLat                76808250                       # Total ticks spent queuing (Tick)
system.mem_ctrls.dram.totBusLat              81690000                       # Total ticks spent in databus transfers (Tick)
system.mem_ctrls.dram.totMemAccLat          383145750                       # Total ticks spent from burst creation until serviced by the DRAM (Tick)
system.mem_ctrls.dram.avgQLat                 4701.20                       # Average queueing delay per DRAM burst ((Tick/Count))
system.mem_ctrls.dram.avgBusLat               5000.00                       # Average bus latency per DRAM burst ((Tick/Count))
system.mem_ctrls.dram.avgMemAccLat           23451.20                       # Average memory access latency per DRAM burst ((Tick/Count))
system.mem_ctrls.dram.readRowHits               15039                       # Number of row buffer hits during reads (Count)
system.mem_ctrls.dram.writeRowHits                  0                       # Number of row buffer hits during writes (Count)
system.mem_ctrls.dram.readRowHitRate            92.05                       # Row buffer hit rate for reads (Ratio)
system.mem_ctrls.dram.writeRowHitRate             nan                       # Row buffer hit rate for writes (Ratio)
system.mem_ctrls.dram.bytesPerActivate::samples         1289                       # Bytes accessed per row activation (Byte)
system.mem_ctrls.dram.bytesPerActivate::mean   809.458495                       # Bytes accessed per row activation (Byte)
system.mem_ctrls.dram.bytesPerActivate::gmean   625.265882                       # Bytes accessed per row activation (Byte)
system.mem_ctrls.dram.bytesPerActivate::stdev   366.022649                       # Bytes accessed per row activation (Byte)
system.mem_ctrls.dram.bytesPerActivate::0-127           76      5.90%      5.90% # Bytes accessed per row activation (Byte)
system.mem_ctrls.dram.bytesPerActivate::128-255          176     13.65%     19.55% # Bytes accessed per row activation (Byte)
system.mem_ctrls.dram.bytesPerActivate::256-383           26      2.02%     21.57% # Bytes accessed per row activation (Byte)
system.mem_ctrls.dram.bytesPerActivate::384-511           11      0.85%     22.42% # Bytes accessed per row activation (Byte)
system.mem_ctrls.dram.bytesPerActivate::512-639            5      0.39%     22.81% # Bytes accessed per row activation (Byte)
system.mem_ctrls.dram.bytesPerActivate::640-767            6      0.47%     23.27% # Bytes accessed per row activation (Byte)
system.mem_ctrls.dram.bytesPerActivate::768-895            4      0.31%     23.58% # Bytes accessed per row activation (Byte)
system.mem_ctrls.dram.bytesPerActivate::896-1023          122      9.46%     33.05% # Bytes accessed per row activation (Byte)
system.mem_ctrls.dram.bytesPerActivate::1024-1151          863     66.95%    100.00% # Bytes accessed per row activation (Byte)
system.mem_ctrls.dram.bytesPerActivate::total         1289                       # Bytes accessed per row activation (Byte)
system.mem_ctrls.dram.bytesRead               1045632                       # Total bytes read (Byte)
system.mem_ctrls.dram.bytesWritten                  0                       # Total bytes written (Byte)
system.mem_ctrls.dram.avgRdBW               41.634690                       # Average DRAM read bandwidth in MiBytes/s ((Byte/Second))
system.mem_ctrls.dram.avgWrBW                       0                       # Average DRAM write bandwidth in MiBytes/s ((Byte/Second))
system.mem_ctrls.dram.peakBW                 12800.00                       # Theoretical peak bandwidth in MiByte/s ((Byte/Second))
system.mem_ctrls.dram.busUtil                    0.33                       # Data bus utilization in percentage (Ratio)
system.mem_ctrls.dram.busUtilRead                0.33                       # Data bus utilization in percentage for reads (Ratio)
system.mem_ctrls.dram.busUtilWrite               0.00                       # Data bus utilization in percentage for writes (Ratio)
system.mem_ctrls.dram.pageHitRate               92.05                       # Row buffer hit rate, read and write combined (Ratio)
system.mem_ctrls.dram.power_state.pwrStateResidencyTicks::UNDEFINED  25114442000                       # Cumulative time (in ticks) in various power states (Tick)
system.mem_ctrls.dram.rank0.actEnergy         4690980                       # Energy for activate commands per rank (pJ) (Joule)
system.mem_ctrls.dram.rank0.preEnergy         2474340                       # Energy for precharge commands per rank (pJ) (Joule)
system.mem_ctrls.dram.rank0.readEnergy       57569820                       # Energy for read commands per rank (pJ) (Joule)
system.mem_ctrls.dram.rank0.writeEnergy             0                       # Energy for write commands per rank (pJ) (Joule)
system.mem_ctrls.dram.rank0.refreshEnergy 1982214000.000000                       # Energy for refresh commands per rank (pJ) (Joule)
system.mem_ctrls.dram.rank0.actBackEnergy    924341640                       # Energy for active background per rank (pJ) (Joule)
system.mem_ctrls.dram.rank0.preBackEnergy   8865552960                       # Energy for precharge background per rank (pJ) (Joule)
system.mem_ctrls.dram.rank0.actPowerDownEnergy            0                       # Energy for active power-down per rank (pJ) (Joule)
system.mem_ctrls.dram.rank0.prePowerDownEnergy            0                       # Energy for precharge power-down per rank (pJ) (Joule)
system.mem_ctrls.dram.rank0.selfRefreshEnergy            0                       # Energy for self refresh per rank (pJ) (Joule)
system.mem_ctrls.dram.rank0.totalEnergy   11836843740                       # Total energy per rank (pJ) (Joule)
system.mem_ctrls.dram.rank0.averagePower   471.316215                       # Core power per rank (mW) (Watt)
system.mem_ctrls.dram.rank0.totalIdleTime            0                       # Total Idle time Per DRAM Rank (Tick)
system.mem_ctrls.dram.rank0.pwrStateTime::IDLE  23036980500                       # Time in different power states (Tick)
system.mem_ctrls.dram.rank0.pwrStateTime::REF    838500000                       # Time in different power states (Tick)
system.mem_ctrls.dram.rank0.pwrStateTime::SREF            0                       # Time in different power states (Tick)
system.mem_ctrls.dram.rank0.pwrStateTime::PRE_PDN            0                       # Time in different power states (Tick)
system.mem_ctrls.dram.rank0.pwrStateTime::ACT   1238961500                       # Time in different power states (Tick)
system.mem_ctrls.dram.rank0.pwrStateTime::ACT_PDN            0                       # Time in different power states (Tick)
system.mem_ctrls.dram.rank1.actEnergy         4583880                       # Energy for activate commands per rank (pJ) (Joule)
system.mem_ctrls.dram.rank1.preEnergy         2417415                       # Energy for precharge commands per rank (pJ) (Joule)
system.mem_ctrls.dram.rank1.readEnergy       59083500                       # Energy for read commands per rank (pJ) (Joule)
system.mem_ctrls.dram.rank1.writeEnergy             0                       # Energy for write commands per rank (pJ) (Joule)
system.mem_ctrls.dram.rank1.refreshEnergy 1982214000.000000                       # Energy for refresh commands per rank (pJ) (Joule)
system.mem_ctrls.dram.rank1.actBackEnergy    939002040                       # Energy for active background per rank (pJ) (Joule)
system.mem_ctrls.dram.rank1.preBackEnergy   8853207360                       # Energy for precharge background per rank (pJ) (Joule)
system.mem_ctrls.dram.rank1.actPowerDownEnergy            0                       # Energy for active power-down per rank (pJ) (Joule)
system.mem_ctrls.dram.rank1.prePowerDownEnergy            0                       # Energy for precharge power-down per rank (pJ) (Joule)
system.mem_ctrls.dram.rank1.selfRefreshEnergy            0                       # Energy for self refresh per rank (pJ) (Joule)
system.mem_ctrls.dram.rank1.totalEnergy   11840508195                       # Total energy per rank (pJ) (Joule)
system.mem_ctrls.dram.rank1.averagePower   471.462125                       # Core power per rank (mW) (Watt)
system.mem_ctrls.dram.rank1.totalIdleTime            0                       # Total Idle time Per DRAM Rank (Tick)
system.mem_ctrls.dram.rank1.pwrStateTime::IDLE  23004601250                       # Time in different power states (Tick)
system.mem_ctrls.dram.rank1.pwrStateTime::REF    838500000                       # Time in different power states (Tick)
system.mem_ctrls.dram.rank1.pwrStateTime::SREF            0                       # Time in different power states (Tick)
system.mem_ctrls.dram.rank1.pwrStateTime::PRE_PDN            0                       # Time in different power states (Tick)
system.mem_ctrls.dram.rank1.pwrStateTime::ACT   1271340750                       # Time in different power states (Tick)
system.mem_ctrls.dram.rank1.pwrStateTime::ACT_PDN            0                       # Time in different power states (Tick)
system.mem_ctrls.power_state.pwrStateResidencyTicks::UNDEFINED  25114442000                       # Cumulative time (in ticks) in various power states (Tick)
system.membus.transDist::ReadResp                 607                       # Transaction distribution (Count)
system.membus.transDist::ReadExReq              15731                       # Transaction distribution (Count)
system.membus.transDist::ReadExResp             15731                       # Transaction distribution (Count)
system.membus.transDist::ReadSharedReq            607                       # Transaction distribution (Count)
system.membus.pktCount_system.l2.mem_side_port::system.mem_ctrls.port        32676                       # Packet count per connected requestor and responder (Count)
system.membus.pktCount_system.l2.mem_side_port::total        32676                       # Packet count per connected requestor and responder (Count)
system.membus.pktCount::total                   32676                       # Packet count per connected requestor and responder (Count)
system.membus.pktSize_system.l2.mem_side_port::system.mem_ctrls.port      1045632                       # Cumulative packet size per connected requestor and responder (Byte)
system.membus.pktSize_system.l2.mem_side_port::total      1045632                       # Cumulative packet size per connected requestor and responder (Byte)
system.membus.pktSize::total                  1045632                       # Cumulative packet size per connected requestor and responder (Byte)
system.membus.snoops                                0                       # Total snoops (Count)
system.membus.snoopTraffic                          0                       # Total snoop traffic (Byte)
system.membus.snoopFanout::samples              16338                       # Request fanout histogram (Count)
system.membus.snoopFanout::mean                     0                       # Request fanout histogram (Count)
system.membus.snoopFanout::stdev                    0                       # Request fanout histogram (Count)
system.membus.snoopFanout::underflows               0      0.00%      0.00% # Request fanout histogram (Count)
system.membus.snoopFanout::0                    16338    100.00%    100.00% # Request fanout histogram (Count)
system.membus.snoopFanout::1                        0      0.00%    100.00% # Request fanout histogram (Count)
system.membus.snoopFanout::overflows                0      0.00%    100.00% # Request fanout histogram (Count)
system.membus.snoopFanout::min_value                0                       # Request fanout histogram (Count)
system.membus.snoopFanout::max_value                0                       # Request fanout histogram (Count)
system.membus.snoopFanout::total                16338                       # Request fanout histogram (Count)
system.membus.power_state.pwrStateResidencyTicks::UNDEFINED  25114442000                       # Cumulative time (in ticks) in various power states (Tick)
system.membus.reqLayer2.occupancy            16338000                       # Layer occupancy (ticks) (Tick)
system.membus.reqLayer2.utilization               0.0                       # Layer utilization (Ratio)
system.membus.respLayer1.occupancy           86091000                       # Layer occupancy (ticks) (Tick)
system.membus.respLayer1.utilization              0.0                       # Layer utilization (Ratio)
system.membus.snoop_filter.totRequests          16338                       # Total number of requests made to the snoop filter. (Count)
system.membus.snoop_filter.hitSingleRequests            0                       # Number of requests hitting in the snoop filter with a single holder of the requested data. (Count)
system.membus.snoop_filter.hitMultiRequests            0                       # Number of requests hitting in the snoop filter with multiple (>1) holders of the requested data. (Count)
system.membus.snoop_filter.totSnoops                0                       # Total number of snoops made to the snoop filter. (Count)
system.membus.snoop_filter.hitSingleSnoops            0                       # Number of snoops hitting in the snoop filter with a single holder of the requested data. (Count)
system.membus.snoop_filter.hitMultiSnoops            0                       # Number of snoops hitting in the snoop filter with multiple (>1) holders of the requested data. (Count)
system.tol2bus.transDist::ReadResp              16396                       # Transaction distribution (Count)
system.tol2bus.transDist::WritebackDirty       777519                       # Transaction distribution (Count)
system.tol2bus.transDist::WritebackClean           19                       # Transaction distribution (Count)
system.tol2bus.transDist::CleanEvict               81                       # Transaction distribution (Count)
system.tol2bus.transDist::ReadExReq            762709                       # Transaction distribution (Count)
system.tol2bus.transDist::ReadExResp           762709                       # Transaction distribution (Count)
system.tol2bus.transDist::ReadCleanReq            481                       # Transaction distribution (Count)
system.tol2bus.transDist::ReadSharedReq         15915                       # Transaction distribution (Count)
system.tol2bus.pktCount_system.cpu.icache.mem_side_port::system.l2.cpu_side_port          981                       # Packet count per connected requestor and responder (Count)
system.tol2bus.pktCount_system.cpu.dcache.mem_side_port::system.l2.cpu_side_port      2334848                       # Packet count per connected requestor and responder (Count)
system.tol2bus.pktCount::total                2335829                       # Packet count per connected requestor and responder (Count)
system.tol2bus.pktSize_system.cpu.icache.mem_side_port::system.l2.cpu_side_port        32000                       # Cumulative packet size per connected requestor and responder (Byte)
system.tol2bus.pktSize_system.cpu.dcache.mem_side_port::system.l2.cpu_side_port     99593152                       # Cumulative packet size per connected requestor and responder (Byte)
system.tol2bus.pktSize::total                99625152                       # Cumulative packet size per connected requestor and responder (Byte)
system.tol2bus.snoops                               0                       # Total snoops (Count)
system.tol2bus.snoopTraffic                         0                       # Total snoop traffic (Byte)
system.tol2bus.snoopFanout::samples            779105                       # Request fanout histogram (Count)
system.tol2bus.snoopFanout::mean                    0                       # Request fanout histogram (Count)
system.tol2bus.snoopFanout::stdev                   0                       # Request fanout histogram (Count)
system.tol2bus.snoopFanout::underflows              0      0.00%      0.00% # Request fanout histogram (Count)
system.tol2bus.snoopFanout::0                  779105    100.00%    100.00% # Request fanout histogram (Count)
system.tol2bus.snoopFanout::1                       0      0.00%    100.00% # Request fanout histogram (Count)
system.tol2bus.snoopFanout::2                       0      0.00%    100.00% # Request fanout histogram (Count)
system.tol2bus.snoopFanout::3                       0      0.00%    100.00% # Request fanout histogram (Count)
system.tol2bus.snoopFanout::4                       0      0.00%    100.00% # Request fanout histogram (Count)
system.tol2bus.snoopFanout::overflows               0      0.00%    100.00% # Request fanout histogram (Count)
system.tol2bus.snoopFanout::min_value               0                       # Request fanout histogram (Count)
system.tol2bus.snoopFanout::max_value               0                       # Request fanout histogram (Count)
system.tol2bus.snoopFanout::total              779105                       # Request fanout histogram (Count)
system.tol2bus.power_state.pwrStateResidencyTicks::UNDEFINED  25114442000                       # Cumulative time (in ticks) in various power states (Tick)
system.tol2bus.reqLayer0.occupancy         3111800000                       # Layer occupancy (ticks) (Tick)
system.tol2bus.reqLayer0.utilization              0.1                       # Layer utilization (Ratio)
system.tol2bus.respLayer0.occupancy           1443000                       # Layer occupancy (ticks) (Tick)
system.tol2bus.respLayer0.utilization             0.0                       # Layer utilization (Ratio)
system.tol2bus.respLayer1.occupancy        2335872000                       # Layer occupancy (ticks) (Tick)
system.tol2bus.respLayer1.utilization             0.1                       # Layer utilization (Ratio)
system.tol2bus.snoop_filter.totRequests       1556724                       # Total number of requests made to the snoop filter. (Count)
system.tol2bus.snoop_filter.hitSingleRequests       777619                       # Number of requests hitting in the snoop filter with a single holder of the requested data. (Count)
system.tol2bus.snoop_filter.hitMultiRequests            0                       # Number of requests hitting in the snoop filter with multiple (>1) holders of the requested data. (Count)
system.tol2bus.snoop_filter.totSnoops               0                       # Total number of snoops made to the snoop filter. (Count)
system.tol2bus.snoop_filter.hitSingleSnoops            0                       # Number of snoops hitting in the snoop filter with a single holder of the requested data. (Count)
system.tol2bus.snoop_filter.hitMultiSnoops            0                       # Number of snoops hitting in the snoop filter with multiple (>1) holders of the requested data. (Count)
system.voltage_domain.voltage                       1                       # Voltage in Volts (Volt)
system.workload.inst.arm                            0                       # number of arm instructions executed (Count)
system.workload.inst.quiesce                        0                       # number of quiesce instructions executed (Count)

---------- End Simulation Statistics   ----------
