
---------- Begin Simulation Statistics ----------
simSeconds                                   0.000471                       # Number of seconds simulated (Second)
simTicks                                    470771250                       # Number of ticks simulated (Tick)
finalTick                                   470771250                       # Number of ticks from beginning of simulation (restored from checkpoints and never reset) (Tick)
simFreq                                  1000000000000                       # The number of ticks per simulated second ((Tick/Second))
hostSeconds                                     11.37                       # Real time elapsed on the host (Second)
hostTickRate                                 41411410                       # The number of ticks simulated per host second (ticks/s) ((Tick/Second))
hostMemory                                     655000                       # Number of bytes of host memory used (Byte)
simInsts                                      2512827                       # Number of instructions simulated (Count)
simOps                                        4198997                       # Number of ops (including micro ops) simulated (Count)
hostInstRate                                   221038                       # Simulator instruction rate (inst/s) ((Count/Second))
hostOpRate                                     369359                       # Simulator op (including micro ops) rate (op/s) ((Count/Second))
system.clk_domain.clock                           250                       # Clock period in ticks (Tick)
system.cpu.numCycles                          1883086                       # Number of cpu cycles simulated (Cycle)
system.cpu.numWorkItemsStarted                      0                       # Number of work items this cpu started (Count)
system.cpu.numWorkItemsCompleted                    0                       # Number of work items this cpu completed (Count)
system.cpu.instsAdded                         6014952                       # Number of instructions added to the IQ (excludes non-spec) (Count)
system.cpu.nonSpecInstsAdded                        1                       # Number of non-speculative instructions added to the IQ (Count)
system.cpu.instsIssued                        5748145                       # Number of instructions issued (Count)
system.cpu.squashedInstsIssued                  20692                       # Number of squashed instructions issued (Count)
system.cpu.squashedInstsExamined              1815942                       # Number of squashed instructions iterated over during squash; mainly for profiling (Count)
system.cpu.squashedOperandsExamined           1397528                       # Number of squashed operands that are examined and possibly removed from graph (Count)
system.cpu.squashedNonSpecRemoved                   1                       # Number of squashed non-spec instructions that were removed (Count)
system.cpu.numIssuedDist::samples             1834354                       # Number of insts issued each cycle (Count)
system.cpu.numIssuedDist::mean               3.133607                       # Number of insts issued each cycle (Count)
system.cpu.numIssuedDist::stdev              2.744469                       # Number of insts issued each cycle (Count)
system.cpu.numIssuedDist::underflows                0      0.00%      0.00% # Number of insts issued each cycle (Count)
system.cpu.numIssuedDist::0                    642059     35.00%     35.00% # Number of insts issued each cycle (Count)
system.cpu.numIssuedDist::1                     48841      2.66%     37.66% # Number of insts issued each cycle (Count)
system.cpu.numIssuedDist::2                    149550      8.15%     45.82% # Number of insts issued each cycle (Count)
system.cpu.numIssuedDist::3                    123162      6.71%     52.53% # Number of insts issued each cycle (Count)
system.cpu.numIssuedDist::4                    131597      7.17%     59.71% # Number of insts issued each cycle (Count)
system.cpu.numIssuedDist::5                    189158     10.31%     70.02% # Number of insts issued each cycle (Count)
system.cpu.numIssuedDist::6                    330072     17.99%     88.01% # Number of insts issued each cycle (Count)
system.cpu.numIssuedDist::7                    181212      9.88%     97.89% # Number of insts issued each cycle (Count)
system.cpu.numIssuedDist::8                     38703      2.11%    100.00% # Number of insts issued each cycle (Count)
system.cpu.numIssuedDist::overflows                 0      0.00%    100.00% # Number of insts issued each cycle (Count)
system.cpu.numIssuedDist::min_value                 0                       # Number of insts issued each cycle (Count)
system.cpu.numIssuedDist::max_value                 8                       # Number of insts issued each cycle (Count)
system.cpu.numIssuedDist::total               1834354                       # Number of insts issued each cycle (Count)
system.cpu.statFuBusy::No_OpClass                   0      0.00%      0.00% # attempts to use FU when none available (Count)
system.cpu.statFuBusy::IntAlu                  204729     99.96%     99.96% # attempts to use FU when none available (Count)
system.cpu.statFuBusy::IntMult                      0      0.00%     99.96% # attempts to use FU when none available (Count)
system.cpu.statFuBusy::IntDiv                       0      0.00%     99.96% # attempts to use FU when none available (Count)
system.cpu.statFuBusy::FloatAdd                     0      0.00%     99.96% # attempts to use FU when none available (Count)
system.cpu.statFuBusy::FloatCmp                     0      0.00%     99.96% # attempts to use FU when none available (Count)
system.cpu.statFuBusy::FloatCvt                     0      0.00%     99.96% # attempts to use FU when none available (Count)
system.cpu.statFuBusy::FloatMult                    0      0.00%     99.96% # attempts to use FU when none available (Count)
system.cpu.statFuBusy::FloatMultAcc                 0      0.00%     99.96% # attempts to use FU when none available (Count)
system.cpu.statFuBusy::FloatDiv                     0      0.00%     99.96% # attempts to use FU when none available (Count)
system.cpu.statFuBusy::FloatMisc                    0      0.00%     99.96% # attempts to use FU when none available (Count)
system.cpu.statFuBusy::FloatSqrt                    0      0.00%     99.96% # attempts to use FU when none available (Count)
system.cpu.statFuBusy::SimdAdd                      0      0.00%     99.96% # attempts to use FU when none available (Count)
system.cpu.statFuBusy::SimdAddAcc                   0      0.00%     99.96% # attempts to use FU when none available (Count)
system.cpu.statFuBusy::SimdAlu                     11      0.01%     99.97% # attempts to use FU when none available (Count)
system.cpu.statFuBusy::SimdCmp                      0      0.00%     99.97% # attempts to use FU when none available (Count)
system.cpu.statFuBusy::SimdCvt                      0      0.00%     99.97% # attempts to use FU when none available (Count)
system.cpu.statFuBusy::SimdMisc                     2      0.00%     99.97% # attempts to use FU when none available (Count)
system.cpu.statFuBusy::SimdMult                     0      0.00%     99.97% # attempts to use FU when none available (Count)
system.cpu.statFuBusy::SimdMultAcc                  0      0.00%     99.97% # attempts to use FU when none available (Count)
system.cpu.statFuBusy::SimdShift                    0      0.00%     99.97% # attempts to use FU when none available (Count)
system.cpu.statFuBusy::SimdShiftAcc                 0      0.00%     99.97% # attempts to use FU when none available (Count)
system.cpu.statFuBusy::SimdDiv                      0      0.00%     99.97% # attempts to use FU when none available (Count)
system.cpu.statFuBusy::SimdSqrt                     0      0.00%     99.97% # attempts to use FU when none available (Count)
system.cpu.statFuBusy::SimdFloatAdd                 0      0.00%     99.97% # attempts to use FU when none available (Count)
system.cpu.statFuBusy::SimdFloatAlu                 0      0.00%     99.97% # attempts to use FU when none available (Count)
system.cpu.statFuBusy::SimdFloatCmp                 0      0.00%     99.97% # attempts to use FU when none available (Count)
system.cpu.statFuBusy::SimdFloatCvt                 0      0.00%     99.97% # attempts to use FU when none available (Count)
system.cpu.statFuBusy::SimdFloatDiv                 0      0.00%     99.97% # attempts to use FU when none available (Count)
system.cpu.statFuBusy::SimdFloatMisc                0      0.00%     99.97% # attempts to use FU when none available (Count)
system.cpu.statFuBusy::SimdFloatMult                0      0.00%     99.97% # attempts to use FU when none available (Count)
system.cpu.statFuBusy::SimdFloatMultAcc             0      0.00%     99.97% # attempts to use FU when none available (Count)
system.cpu.statFuBusy::SimdFloatSqrt                0      0.00%     99.97% # attempts to use FU when none available (Count)
system.cpu.statFuBusy::SimdReduceAdd                0      0.00%     99.97% # attempts to use FU when none available (Count)
system.cpu.statFuBusy::SimdReduceAlu                0      0.00%     99.97% # attempts to use FU when none available (Count)
system.cpu.statFuBusy::SimdReduceCmp                0      0.00%     99.97% # attempts to use FU when none available (Count)
system.cpu.statFuBusy::SimdFloatReduceAdd            0      0.00%     99.97% # attempts to use FU when none available (Count)
system.cpu.statFuBusy::SimdFloatReduceCmp            0      0.00%     99.97% # attempts to use FU when none available (Count)
system.cpu.statFuBusy::SimdAes                      0      0.00%     99.97% # attempts to use FU when none available (Count)
system.cpu.statFuBusy::SimdAesMix                   0      0.00%     99.97% # attempts to use FU when none available (Count)
system.cpu.statFuBusy::SimdSha1Hash                 0      0.00%     99.97% # attempts to use FU when none available (Count)
system.cpu.statFuBusy::SimdSha1Hash2                0      0.00%     99.97% # attempts to use FU when none available (Count)
system.cpu.statFuBusy::SimdSha256Hash               0      0.00%     99.97% # attempts to use FU when none available (Count)
system.cpu.statFuBusy::SimdSha256Hash2              0      0.00%     99.97% # attempts to use FU when none available (Count)
system.cpu.statFuBusy::SimdShaSigma2                0      0.00%     99.97% # attempts to use FU when none available (Count)
system.cpu.statFuBusy::SimdShaSigma3                0      0.00%     99.97% # attempts to use FU when none available (Count)
system.cpu.statFuBusy::SimdPredAlu                  0      0.00%     99.97% # attempts to use FU when none available (Count)
system.cpu.statFuBusy::MemRead                     30      0.01%     99.98% # attempts to use FU when none available (Count)
system.cpu.statFuBusy::MemWrite                    18      0.01%     99.99% # attempts to use FU when none available (Count)
system.cpu.statFuBusy::FloatMemRead                 4      0.00%    100.00% # attempts to use FU when none available (Count)
system.cpu.statFuBusy::FloatMemWrite                9      0.00%    100.00% # attempts to use FU when none available (Count)
system.cpu.statFuBusy::IprAccess                    0      0.00%    100.00% # attempts to use FU when none available (Count)
system.cpu.statFuBusy::InstPrefetch                 0      0.00%    100.00% # attempts to use FU when none available (Count)
system.cpu.statIssuedInstType_0::No_OpClass        30372      0.53%      0.53% # Number of instructions issued per FU type, per thread (Count)
system.cpu.statIssuedInstType_0::IntAlu       4861285     84.57%     85.10% # Number of instructions issued per FU type, per thread (Count)
system.cpu.statIssuedInstType_0::IntMult            6      0.00%     85.10% # Number of instructions issued per FU type, per thread (Count)
system.cpu.statIssuedInstType_0::IntDiv            28      0.00%     85.10% # Number of instructions issued per FU type, per thread (Count)
system.cpu.statIssuedInstType_0::FloatAdd          136      0.00%     85.10% # Number of instructions issued per FU type, per thread (Count)
system.cpu.statIssuedInstType_0::FloatCmp            0      0.00%     85.10% # Number of instructions issued per FU type, per thread (Count)
system.cpu.statIssuedInstType_0::FloatCvt            0      0.00%     85.10% # Number of instructions issued per FU type, per thread (Count)
system.cpu.statIssuedInstType_0::FloatMult            0      0.00%     85.10% # Number of instructions issued per FU type, per thread (Count)
system.cpu.statIssuedInstType_0::FloatMultAcc            0      0.00%     85.10% # Number of instructions issued per FU type, per thread (Count)
system.cpu.statIssuedInstType_0::FloatDiv            0      0.00%     85.10% # Number of instructions issued per FU type, per thread (Count)
system.cpu.statIssuedInstType_0::FloatMisc            0      0.00%     85.10% # Number of instructions issued per FU type, per thread (Count)
system.cpu.statIssuedInstType_0::FloatSqrt            0      0.00%     85.10% # Number of instructions issued per FU type, per thread (Count)
system.cpu.statIssuedInstType_0::SimdAdd            0      0.00%     85.10% # Number of instructions issued per FU type, per thread (Count)
system.cpu.statIssuedInstType_0::SimdAddAcc            0      0.00%     85.10% # Number of instructions issued per FU type, per thread (Count)
system.cpu.statIssuedInstType_0::SimdAlu          154      0.00%     85.11% # Number of instructions issued per FU type, per thread (Count)
system.cpu.statIssuedInstType_0::SimdCmp            0      0.00%     85.11% # Number of instructions issued per FU type, per thread (Count)
system.cpu.statIssuedInstType_0::SimdCvt           48      0.00%     85.11% # Number of instructions issued per FU type, per thread (Count)
system.cpu.statIssuedInstType_0::SimdMisc          218      0.00%     85.11% # Number of instructions issued per FU type, per thread (Count)
system.cpu.statIssuedInstType_0::SimdMult            0      0.00%     85.11% # Number of instructions issued per FU type, per thread (Count)
system.cpu.statIssuedInstType_0::SimdMultAcc            0      0.00%     85.11% # Number of instructions issued per FU type, per thread (Count)
system.cpu.statIssuedInstType_0::SimdShift            0      0.00%     85.11% # Number of instructions issued per FU type, per thread (Count)
system.cpu.statIssuedInstType_0::SimdShiftAcc            0      0.00%     85.11% # Number of instructions issued per FU type, per thread (Count)
system.cpu.statIssuedInstType_0::SimdDiv            0      0.00%     85.11% # Number of instructions issued per FU type, per thread (Count)
system.cpu.statIssuedInstType_0::SimdSqrt            0      0.00%     85.11% # Number of instructions issued per FU type, per thread (Count)
system.cpu.statIssuedInstType_0::SimdFloatAdd            0      0.00%     85.11% # Number of instructions issued per FU type, per thread (Count)
system.cpu.statIssuedInstType_0::SimdFloatAlu            0      0.00%     85.11% # Number of instructions issued per FU type, per thread (Count)
system.cpu.statIssuedInstType_0::SimdFloatCmp            0      0.00%     85.11% # Number of instructions issued per FU type, per thread (Count)
system.cpu.statIssuedInstType_0::SimdFloatCvt            0      0.00%     85.11% # Number of instructions issued per FU type, per thread (Count)
system.cpu.statIssuedInstType_0::SimdFloatDiv            0      0.00%     85.11% # Number of instructions issued per FU type, per thread (Count)
system.cpu.statIssuedInstType_0::SimdFloatMisc            0      0.00%     85.11% # Number of instructions issued per FU type, per thread (Count)
system.cpu.statIssuedInstType_0::SimdFloatMult            0      0.00%     85.11% # Number of instructions issued per FU type, per thread (Count)
system.cpu.statIssuedInstType_0::SimdFloatMultAcc            0      0.00%     85.11% # Number of instructions issued per FU type, per thread (Count)
system.cpu.statIssuedInstType_0::SimdFloatSqrt            0      0.00%     85.11% # Number of instructions issued per FU type, per thread (Count)
system.cpu.statIssuedInstType_0::SimdReduceAdd            0      0.00%     85.11% # Number of instructions issued per FU type, per thread (Count)
system.cpu.statIssuedInstType_0::SimdReduceAlu            0      0.00%     85.11% # Number of instructions issued per FU type, per thread (Count)
system.cpu.statIssuedInstType_0::SimdReduceCmp            0      0.00%     85.11% # Number of instructions issued per FU type, per thread (Count)
system.cpu.statIssuedInstType_0::SimdFloatReduceAdd            0      0.00%     85.11% # Number of instructions issued per FU type, per thread (Count)
system.cpu.statIssuedInstType_0::SimdFloatReduceCmp            0      0.00%     85.11% # Number of instructions issued per FU type, per thread (Count)
system.cpu.statIssuedInstType_0::SimdAes            0      0.00%     85.11% # Number of instructions issued per FU type, per thread (Count)
system.cpu.statIssuedInstType_0::SimdAesMix            0      0.00%     85.11% # Number of instructions issued per FU type, per thread (Count)
system.cpu.statIssuedInstType_0::SimdSha1Hash            0      0.00%     85.11% # Number of instructions issued per FU type, per thread (Count)
system.cpu.statIssuedInstType_0::SimdSha1Hash2            0      0.00%     85.11% # Number of instructions issued per FU type, per thread (Count)
system.cpu.statIssuedInstType_0::SimdSha256Hash            0      0.00%     85.11% # Number of instructions issued per FU type, per thread (Count)
system.cpu.statIssuedInstType_0::SimdSha256Hash2            0      0.00%     85.11% # Number of instructions issued per FU type, per thread (Count)
system.cpu.statIssuedInstType_0::SimdShaSigma2            0      0.00%     85.11% # Number of instructions issued per FU type, per thread (Count)
system.cpu.statIssuedInstType_0::SimdShaSigma3            0      0.00%     85.11% # Number of instructions issued per FU type, per thread (Count)
system.cpu.statIssuedInstType_0::SimdPredAlu            0      0.00%     85.11% # Number of instructions issued per FU type, per thread (Count)
system.cpu.statIssuedInstType_0::MemRead       445576      7.75%     92.86% # Number of instructions issued per FU type, per thread (Count)
system.cpu.statIssuedInstType_0::MemWrite       304149      5.29%     98.15% # Number of instructions issued per FU type, per thread (Count)
system.cpu.statIssuedInstType_0::FloatMemRead        54683      0.95%     99.10% # Number of instructions issued per FU type, per thread (Count)
system.cpu.statIssuedInstType_0::FloatMemWrite        51490      0.90%    100.00% # Number of instructions issued per FU type, per thread (Count)
system.cpu.statIssuedInstType_0::IprAccess            0      0.00%    100.00% # Number of instructions issued per FU type, per thread (Count)
system.cpu.statIssuedInstType_0::InstPrefetch            0      0.00%    100.00% # Number of instructions issued per FU type, per thread (Count)
system.cpu.statIssuedInstType_0::total        5748145                       # Number of instructions issued per FU type, per thread (Count)
system.cpu.issueRate                         3.052513                       # Inst issue rate ((Count/Cycle))
system.cpu.fuBusy                              204803                       # FU busy when requested (Count)
system.cpu.fuBusyRate                        0.035629                       # FU busy rate (busy events/executed inst) ((Count/Count))
system.cpu.intInstQueueReads                 13342368                       # Number of integer instruction queue reads (Count)
system.cpu.intInstQueueWrites                 7714517                       # Number of integer instruction queue writes (Count)
system.cpu.intInstQueueWakeupAccesses         5404707                       # Number of integer instruction queue wakeup accesses (Count)
system.cpu.fpInstQueueReads                    213765                       # Number of floating instruction queue reads (Count)
system.cpu.fpInstQueueWrites                   116403                       # Number of floating instruction queue writes (Count)
system.cpu.fpInstQueueWakeupAccesses           102430                       # Number of floating instruction queue wakeup accesses (Count)
system.cpu.vecInstQueueReads                        0                       # Number of vector instruction queue reads (Count)
system.cpu.vecInstQueueWrites                       0                       # Number of vector instruction queue writes (Count)
system.cpu.vecInstQueueWakeupAccesses               0                       # Number of vector instruction queue wakeup accesses (Count)
system.cpu.intAluAccesses                     5815681                       # Number of integer alu accesses (Count)
system.cpu.fpAluAccesses                       106895                       # Number of floating point alu accesses (Count)
system.cpu.vecAluAccesses                           0                       # Number of vector alu accesses (Count)
system.cpu.numInsts                           5563788                       # Number of executed instructions (Count)
system.cpu.numLoadInsts                        483603                       # Number of load instructions executed (Count)
system.cpu.numSquashedInsts                    184351                       # Number of squashed instructions skipped in execute (Count)
system.cpu.numSwp                                   0                       # Number of swp insts executed (Count)
system.cpu.numNop                                   0                       # Number of nop insts executed (Count)
system.cpu.numRefs                             826380                       # Number of memory reference insts executed (Count)
system.cpu.numBranches                         663383                       # Number of branches executed (Count)
system.cpu.numStoreInsts                       342777                       # Number of stores executed (Count)
system.cpu.numRate                           2.954612                       # Inst execution rate ((Count/Cycle))
system.cpu.timesIdled                             348                       # Number of times that the entire CPU went into an idle state and unscheduled itself (Count)
system.cpu.idleCycles                           48732                       # Total number of cycles that the CPU has spent unscheduled due to idling (Cycle)
system.cpu.committedInsts                     2512827                       # Number of Instructions Simulated (Count)
system.cpu.committedOps                       4198997                       # Number of Ops (including micro ops) Simulated (Count)
system.cpu.cpi                               0.749389                       # CPI: Cycles Per Instruction ((Cycle/Count))
system.cpu.totalCpi                          0.749389                       # CPI: Total CPI of All Threads ((Cycle/Count))
system.cpu.ipc                               1.334420                       # IPC: Instructions Per Cycle ((Count/Cycle))
system.cpu.totalIpc                          1.334420                       # IPC: Total IPC of All Threads ((Count/Cycle))
system.cpu.intRegfileReads                    7765137                       # Number of integer regfile reads (Count)
system.cpu.intRegfileWrites                   4431392                       # Number of integer regfile writes (Count)
system.cpu.fpRegfileReads                       51722                       # Number of floating regfile reads (Count)
system.cpu.fpRegfileWrites                      52350                       # Number of floating regfile writes (Count)
system.cpu.ccRegfileReads                     3183335                       # number of cc regfile reads (Count)
system.cpu.ccRegfileWrites                    2293894                       # number of cc regfile writes (Count)
system.cpu.miscRegfileReads                   2218009                       # number of misc regfile reads (Count)
system.cpu.MemDepUnit__0.insertedLoads         510318                       # Number of loads inserted to the mem dependence unit. (Count)
system.cpu.MemDepUnit__0.insertedStores        381758                       # Number of stores inserted to the mem dependence unit. (Count)
system.cpu.MemDepUnit__0.conflictingLoads        15132                       # Number of conflicting loads. (Count)
system.cpu.MemDepUnit__0.conflictingStores        12824                       # Number of conflicting stores. (Count)
system.cpu.MemDepUnit__1.insertedLoads              0                       # Number of loads inserted to the mem dependence unit. (Count)
system.cpu.MemDepUnit__1.insertedStores             0                       # Number of stores inserted to the mem dependence unit. (Count)
system.cpu.MemDepUnit__1.conflictingLoads            0                       # Number of conflicting loads. (Count)
system.cpu.MemDepUnit__1.conflictingStores            0                       # Number of conflicting stores. (Count)
system.cpu.MemDepUnit__2.insertedLoads              0                       # Number of loads inserted to the mem dependence unit. (Count)
system.cpu.MemDepUnit__2.insertedStores             0                       # Number of stores inserted to the mem dependence unit. (Count)
system.cpu.MemDepUnit__2.conflictingLoads            0                       # Number of conflicting loads. (Count)
system.cpu.MemDepUnit__2.conflictingStores            0                       # Number of conflicting stores. (Count)
system.cpu.MemDepUnit__3.insertedLoads              0                       # Number of loads inserted to the mem dependence unit. (Count)
system.cpu.MemDepUnit__3.insertedStores             0                       # Number of stores inserted to the mem dependence unit. (Count)
system.cpu.MemDepUnit__3.conflictingLoads            0                       # Number of conflicting loads. (Count)
system.cpu.MemDepUnit__3.conflictingStores            0                       # Number of conflicting stores. (Count)
system.cpu.branchPred.lookups                  914423                       # Number of BP lookups (Count)
system.cpu.branchPred.condPredicted            775452                       # Number of conditional branches predicted (Count)
system.cpu.branchPred.condIncorrect             58808                       # Number of conditional branches incorrect (Count)
system.cpu.branchPred.BTBLookups               291855                       # Number of BTB lookups (Count)
system.cpu.branchPred.BTBHits                  290747                       # Number of BTB hits (Count)
system.cpu.branchPred.BTBHitRatio            0.996204                       # BTB Hit Ratio (Ratio)
system.cpu.branchPred.RASUsed                    9236                       # Number of times the RAS was used to get a target. (Count)
system.cpu.branchPred.RASIncorrect                  3                       # Number of incorrect RAS predictions. (Count)
system.cpu.branchPred.indirectLookups             302                       # Number of indirect predictor lookups. (Count)
system.cpu.branchPred.indirectHits                 11                       # Number of indirect target hits. (Count)
system.cpu.branchPred.indirectMisses              291                       # Number of indirect misses. (Count)
system.cpu.branchPred.indirectMispredicted           92                       # Number of mispredicted indirect branches. (Count)
system.cpu.commit.commitSquashedInsts         1815850                       # The number of squashed insts skipped by commit (Count)
system.cpu.commit.branchMispredicts             57236                       # The number of times a branch was mispredicted (Count)
system.cpu.commit.numCommittedDist::samples      1578143                       # Number of insts commited each cycle (Count)
system.cpu.commit.numCommittedDist::mean     2.660720                       # Number of insts commited each cycle (Count)
system.cpu.commit.numCommittedDist::stdev     2.852407                       # Number of insts commited each cycle (Count)
system.cpu.commit.numCommittedDist::underflows            0      0.00%      0.00% # Number of insts commited each cycle (Count)
system.cpu.commit.numCommittedDist::0          554092     35.11%     35.11% # Number of insts commited each cycle (Count)
system.cpu.commit.numCommittedDist::1          181097     11.48%     46.59% # Number of insts commited each cycle (Count)
system.cpu.commit.numCommittedDist::2          194352     12.32%     58.90% # Number of insts commited each cycle (Count)
system.cpu.commit.numCommittedDist::3          137169      8.69%     67.59% # Number of insts commited each cycle (Count)
system.cpu.commit.numCommittedDist::4          154877      9.81%     77.41% # Number of insts commited each cycle (Count)
system.cpu.commit.numCommittedDist::5           31454      1.99%     79.40% # Number of insts commited each cycle (Count)
system.cpu.commit.numCommittedDist::6           73559      4.66%     84.06% # Number of insts commited each cycle (Count)
system.cpu.commit.numCommittedDist::7           12787      0.81%     84.87% # Number of insts commited each cycle (Count)
system.cpu.commit.numCommittedDist::8          238756     15.13%    100.00% # Number of insts commited each cycle (Count)
system.cpu.commit.numCommittedDist::overflows            0      0.00%    100.00% # Number of insts commited each cycle (Count)
system.cpu.commit.numCommittedDist::min_value            0                       # Number of insts commited each cycle (Count)
system.cpu.commit.numCommittedDist::max_value            8                       # Number of insts commited each cycle (Count)
system.cpu.commit.numCommittedDist::total      1578143                       # Number of insts commited each cycle (Count)
system.cpu.commit.instsCommitted              2512827                       # Number of instructions committed (Count)
system.cpu.commit.opsCommitted                4198997                       # Number of ops (including micro ops) committed (Count)
system.cpu.commit.memRefs                      656391                       # Number of memory references committed (Count)
system.cpu.commit.loads                        376213                       # Number of loads committed (Count)
system.cpu.commit.amos                              0                       # Number of atomic instructions committed (Count)
system.cpu.commit.membars                           0                       # Number of memory barriers committed (Count)
system.cpu.commit.branches                     512255                       # Number of branches committed (Count)
system.cpu.commit.vectorInstructions                0                       # Number of committed Vector instructions. (Count)
system.cpu.commit.floating                      99593                       # Number of committed floating point instructions. (Count)
system.cpu.commit.integer                     4165493                       # Number of committed integer instructions. (Count)
system.cpu.commit.functionCalls                  8334                       # Number of function calls committed. (Count)
system.cpu.commit.committedInstType_0::No_OpClass        28855      0.69%      0.69% # Class of committed instruction (Count)
system.cpu.commit.committedInstType_0::IntAlu      3513235     83.67%     84.36% # Class of committed instruction (Count)
system.cpu.commit.committedInstType_0::IntMult            5      0.00%     84.36% # Class of committed instruction (Count)
system.cpu.commit.committedInstType_0::IntDiv           21      0.00%     84.36% # Class of committed instruction (Count)
system.cpu.commit.committedInstType_0::FloatAdd          135      0.00%     84.36% # Class of committed instruction (Count)
system.cpu.commit.committedInstType_0::FloatCmp            0      0.00%     84.36% # Class of committed instruction (Count)
system.cpu.commit.committedInstType_0::FloatCvt            0      0.00%     84.36% # Class of committed instruction (Count)
system.cpu.commit.committedInstType_0::FloatMult            0      0.00%     84.36% # Class of committed instruction (Count)
system.cpu.commit.committedInstType_0::FloatMultAcc            0      0.00%     84.36% # Class of committed instruction (Count)
system.cpu.commit.committedInstType_0::FloatDiv            0      0.00%     84.36% # Class of committed instruction (Count)
system.cpu.commit.committedInstType_0::FloatMisc            0      0.00%     84.36% # Class of committed instruction (Count)
system.cpu.commit.committedInstType_0::FloatSqrt            0      0.00%     84.36% # Class of committed instruction (Count)
system.cpu.commit.committedInstType_0::SimdAdd            0      0.00%     84.36% # Class of committed instruction (Count)
system.cpu.commit.committedInstType_0::SimdAddAcc            0      0.00%     84.36% # Class of committed instruction (Count)
system.cpu.commit.committedInstType_0::SimdAlu           94      0.00%     84.36% # Class of committed instruction (Count)
system.cpu.commit.committedInstType_0::SimdCmp            0      0.00%     84.36% # Class of committed instruction (Count)
system.cpu.commit.committedInstType_0::SimdCvt           46      0.00%     84.36% # Class of committed instruction (Count)
system.cpu.commit.committedInstType_0::SimdMisc          215      0.01%     84.37% # Class of committed instruction (Count)
system.cpu.commit.committedInstType_0::SimdMult            0      0.00%     84.37% # Class of committed instruction (Count)
system.cpu.commit.committedInstType_0::SimdMultAcc            0      0.00%     84.37% # Class of committed instruction (Count)
system.cpu.commit.committedInstType_0::SimdShift            0      0.00%     84.37% # Class of committed instruction (Count)
system.cpu.commit.committedInstType_0::SimdShiftAcc            0      0.00%     84.37% # Class of committed instruction (Count)
system.cpu.commit.committedInstType_0::SimdDiv            0      0.00%     84.37% # Class of committed instruction (Count)
system.cpu.commit.committedInstType_0::SimdSqrt            0      0.00%     84.37% # Class of committed instruction (Count)
system.cpu.commit.committedInstType_0::SimdFloatAdd            0      0.00%     84.37% # Class of committed instruction (Count)
system.cpu.commit.committedInstType_0::SimdFloatAlu            0      0.00%     84.37% # Class of committed instruction (Count)
system.cpu.commit.committedInstType_0::SimdFloatCmp            0      0.00%     84.37% # Class of committed instruction (Count)
system.cpu.commit.committedInstType_0::SimdFloatCvt            0      0.00%     84.37% # Class of committed instruction (Count)
system.cpu.commit.committedInstType_0::SimdFloatDiv            0      0.00%     84.37% # Class of committed instruction (Count)
system.cpu.commit.committedInstType_0::SimdFloatMisc            0      0.00%     84.37% # Class of committed instruction (Count)
system.cpu.commit.committedInstType_0::SimdFloatMult            0      0.00%     84.37% # Class of committed instruction (Count)
system.cpu.commit.committedInstType_0::SimdFloatMultAcc            0      0.00%     84.37% # Class of committed instruction (Count)
system.cpu.commit.committedInstType_0::SimdFloatSqrt            0      0.00%     84.37% # Class of committed instruction (Count)
system.cpu.commit.committedInstType_0::SimdReduceAdd            0      0.00%     84.37% # Class of committed instruction (Count)
system.cpu.commit.committedInstType_0::SimdReduceAlu            0      0.00%     84.37% # Class of committed instruction (Count)
system.cpu.commit.committedInstType_0::SimdReduceCmp            0      0.00%     84.37% # Class of committed instruction (Count)
system.cpu.commit.committedInstType_0::SimdFloatReduceAdd            0      0.00%     84.37% # Class of committed instruction (Count)
system.cpu.commit.committedInstType_0::SimdFloatReduceCmp            0      0.00%     84.37% # Class of committed instruction (Count)
system.cpu.commit.committedInstType_0::SimdAes            0      0.00%     84.37% # Class of committed instruction (Count)
system.cpu.commit.committedInstType_0::SimdAesMix            0      0.00%     84.37% # Class of committed instruction (Count)
system.cpu.commit.committedInstType_0::SimdSha1Hash            0      0.00%     84.37% # Class of committed instruction (Count)
system.cpu.commit.committedInstType_0::SimdSha1Hash2            0      0.00%     84.37% # Class of committed instruction (Count)
system.cpu.commit.committedInstType_0::SimdSha256Hash            0      0.00%     84.37% # Class of committed instruction (Count)
system.cpu.commit.committedInstType_0::SimdSha256Hash2            0      0.00%     84.37% # Class of committed instruction (Count)
system.cpu.commit.committedInstType_0::SimdShaSigma2            0      0.00%     84.37% # Class of committed instruction (Count)
system.cpu.commit.committedInstType_0::SimdShaSigma3            0      0.00%     84.37% # Class of committed instruction (Count)
system.cpu.commit.committedInstType_0::SimdPredAlu            0      0.00%     84.37% # Class of committed instruction (Count)
system.cpu.commit.committedInstType_0::MemRead       326937      7.79%     92.15% # Class of committed instruction (Count)
system.cpu.commit.committedInstType_0::MemWrite       230490      5.49%     97.64% # Class of committed instruction (Count)
system.cpu.commit.committedInstType_0::FloatMemRead        49276      1.17%     98.82% # Class of committed instruction (Count)
system.cpu.commit.committedInstType_0::FloatMemWrite        49688      1.18%    100.00% # Class of committed instruction (Count)
system.cpu.commit.committedInstType_0::IprAccess            0      0.00%    100.00% # Class of committed instruction (Count)
system.cpu.commit.committedInstType_0::InstPrefetch            0      0.00%    100.00% # Class of committed instruction (Count)
system.cpu.commit.committedInstType_0::total      4198997                       # Class of committed instruction (Count)
system.cpu.commit.commitEligibleSamples        238756                       # number cycles where commit BW limit reached (Cycle)
system.cpu.dcache.demandHits::cpu.data         721970                       # number of demand (read+write) hits (Count)
system.cpu.dcache.demandHits::total            721970                       # number of demand (read+write) hits (Count)
system.cpu.dcache.overallHits::cpu.data        721970                       # number of overall hits (Count)
system.cpu.dcache.overallHits::total           721970                       # number of overall hits (Count)
system.cpu.dcache.demandMisses::cpu.data         2402                       # number of demand (read+write) misses (Count)
system.cpu.dcache.demandMisses::total            2402                       # number of demand (read+write) misses (Count)
system.cpu.dcache.overallMisses::cpu.data         2402                       # number of overall misses (Count)
system.cpu.dcache.overallMisses::total           2402                       # number of overall misses (Count)
system.cpu.dcache.demandMissLatency::cpu.data    102959749                       # number of demand (read+write) miss ticks (Tick)
system.cpu.dcache.demandMissLatency::total    102959749                       # number of demand (read+write) miss ticks (Tick)
system.cpu.dcache.overallMissLatency::cpu.data    102959749                       # number of overall miss ticks (Tick)
system.cpu.dcache.overallMissLatency::total    102959749                       # number of overall miss ticks (Tick)
system.cpu.dcache.demandAccesses::cpu.data       724372                       # number of demand (read+write) accesses (Count)
system.cpu.dcache.demandAccesses::total        724372                       # number of demand (read+write) accesses (Count)
system.cpu.dcache.overallAccesses::cpu.data       724372                       # number of overall (read+write) accesses (Count)
system.cpu.dcache.overallAccesses::total       724372                       # number of overall (read+write) accesses (Count)
system.cpu.dcache.demandMissRate::cpu.data     0.003316                       # miss rate for demand accesses (Ratio)
system.cpu.dcache.demandMissRate::total      0.003316                       # miss rate for demand accesses (Ratio)
system.cpu.dcache.overallMissRate::cpu.data     0.003316                       # miss rate for overall accesses (Ratio)
system.cpu.dcache.overallMissRate::total     0.003316                       # miss rate for overall accesses (Ratio)
system.cpu.dcache.demandAvgMissLatency::cpu.data 42864.175271                       # average overall miss latency ((Cycle/Count))
system.cpu.dcache.demandAvgMissLatency::total 42864.175271                       # average overall miss latency ((Cycle/Count))
system.cpu.dcache.overallAvgMissLatency::cpu.data 42864.175271                       # average overall miss latency ((Cycle/Count))
system.cpu.dcache.overallAvgMissLatency::total 42864.175271                       # average overall miss latency ((Cycle/Count))
system.cpu.dcache.blockedCycles::no_mshrs         1244                       # number of cycles access was blocked (Cycle)
system.cpu.dcache.blockedCycles::no_targets            0                       # number of cycles access was blocked (Cycle)
system.cpu.dcache.blockedCauses::no_mshrs           21                       # number of times access was blocked (Count)
system.cpu.dcache.blockedCauses::no_targets            0                       # number of times access was blocked (Count)
system.cpu.dcache.avgBlocked::no_mshrs      59.238095                       # average number of cycles each access was blocked ((Cycle/Count))
system.cpu.dcache.avgBlocked::no_targets          nan                       # average number of cycles each access was blocked ((Cycle/Count))
system.cpu.dcache.writebacks::writebacks          186                       # number of writebacks (Count)
system.cpu.dcache.writebacks::total               186                       # number of writebacks (Count)
system.cpu.dcache.demandMshrHits::cpu.data         1109                       # number of demand (read+write) MSHR hits (Count)
system.cpu.dcache.demandMshrHits::total          1109                       # number of demand (read+write) MSHR hits (Count)
system.cpu.dcache.overallMshrHits::cpu.data         1109                       # number of overall MSHR hits (Count)
system.cpu.dcache.overallMshrHits::total         1109                       # number of overall MSHR hits (Count)
system.cpu.dcache.demandMshrMisses::cpu.data         1293                       # number of demand (read+write) MSHR misses (Count)
system.cpu.dcache.demandMshrMisses::total         1293                       # number of demand (read+write) MSHR misses (Count)
system.cpu.dcache.overallMshrMisses::cpu.data         1293                       # number of overall MSHR misses (Count)
system.cpu.dcache.overallMshrMisses::total         1293                       # number of overall MSHR misses (Count)
system.cpu.dcache.demandMshrMissLatency::cpu.data     61478249                       # number of demand (read+write) MSHR miss ticks (Tick)
system.cpu.dcache.demandMshrMissLatency::total     61478249                       # number of demand (read+write) MSHR miss ticks (Tick)
system.cpu.dcache.overallMshrMissLatency::cpu.data     61478249                       # number of overall MSHR miss ticks (Tick)
system.cpu.dcache.overallMshrMissLatency::total     61478249                       # number of overall MSHR miss ticks (Tick)
system.cpu.dcache.demandMshrMissRate::cpu.data     0.001785                       # mshr miss ratio for demand accesses (Ratio)
system.cpu.dcache.demandMshrMissRate::total     0.001785                       # mshr miss ratio for demand accesses (Ratio)
system.cpu.dcache.overallMshrMissRate::cpu.data     0.001785                       # mshr miss ratio for overall accesses (Ratio)
system.cpu.dcache.overallMshrMissRate::total     0.001785                       # mshr miss ratio for overall accesses (Ratio)
system.cpu.dcache.demandAvgMshrMissLatency::cpu.data 47546.982985                       # average overall mshr miss latency ((Cycle/Count))
system.cpu.dcache.demandAvgMshrMissLatency::total 47546.982985                       # average overall mshr miss latency ((Cycle/Count))
system.cpu.dcache.overallAvgMshrMissLatency::cpu.data 47546.982985                       # average overall mshr miss latency ((Cycle/Count))
system.cpu.dcache.overallAvgMshrMissLatency::total 47546.982985                       # average overall mshr miss latency ((Cycle/Count))
system.cpu.dcache.replacements                    268                       # number of replacements (Count)
system.cpu.dcache.ReadReq.hits::cpu.data       442430                       # number of ReadReq hits (Count)
system.cpu.dcache.ReadReq.hits::total          442430                       # number of ReadReq hits (Count)
system.cpu.dcache.ReadReq.misses::cpu.data         1763                       # number of ReadReq misses (Count)
system.cpu.dcache.ReadReq.misses::total          1763                       # number of ReadReq misses (Count)
system.cpu.dcache.ReadReq.missLatency::cpu.data     73510500                       # number of ReadReq miss ticks (Tick)
system.cpu.dcache.ReadReq.missLatency::total     73510500                       # number of ReadReq miss ticks (Tick)
system.cpu.dcache.ReadReq.accesses::cpu.data       444193                       # number of ReadReq accesses(hits+misses) (Count)
system.cpu.dcache.ReadReq.accesses::total       444193                       # number of ReadReq accesses(hits+misses) (Count)
system.cpu.dcache.ReadReq.missRate::cpu.data     0.003969                       # miss rate for ReadReq accesses (Ratio)
system.cpu.dcache.ReadReq.missRate::total     0.003969                       # miss rate for ReadReq accesses (Ratio)
system.cpu.dcache.ReadReq.avgMissLatency::cpu.data 41696.256381                       # average ReadReq miss latency ((Tick/Count))
system.cpu.dcache.ReadReq.avgMissLatency::total 41696.256381                       # average ReadReq miss latency ((Tick/Count))
system.cpu.dcache.ReadReq.mshrHits::cpu.data         1106                       # number of ReadReq MSHR hits (Count)
system.cpu.dcache.ReadReq.mshrHits::total         1106                       # number of ReadReq MSHR hits (Count)
system.cpu.dcache.ReadReq.mshrMisses::cpu.data          657                       # number of ReadReq MSHR misses (Count)
system.cpu.dcache.ReadReq.mshrMisses::total          657                       # number of ReadReq MSHR misses (Count)
system.cpu.dcache.ReadReq.mshrMissLatency::cpu.data     32422500                       # number of ReadReq MSHR miss ticks (Tick)
system.cpu.dcache.ReadReq.mshrMissLatency::total     32422500                       # number of ReadReq MSHR miss ticks (Tick)
system.cpu.dcache.ReadReq.mshrMissRate::cpu.data     0.001479                       # mshr miss rate for ReadReq accesses (Ratio)
system.cpu.dcache.ReadReq.mshrMissRate::total     0.001479                       # mshr miss rate for ReadReq accesses (Ratio)
system.cpu.dcache.ReadReq.avgMshrMissLatency::cpu.data 49349.315068                       # average ReadReq mshr miss latency ((Tick/Count))
system.cpu.dcache.ReadReq.avgMshrMissLatency::total 49349.315068                       # average ReadReq mshr miss latency ((Tick/Count))
system.cpu.dcache.WriteReq.hits::cpu.data       279540                       # number of WriteReq hits (Count)
system.cpu.dcache.WriteReq.hits::total         279540                       # number of WriteReq hits (Count)
system.cpu.dcache.WriteReq.misses::cpu.data          639                       # number of WriteReq misses (Count)
system.cpu.dcache.WriteReq.misses::total          639                       # number of WriteReq misses (Count)
system.cpu.dcache.WriteReq.missLatency::cpu.data     29449249                       # number of WriteReq miss ticks (Tick)
system.cpu.dcache.WriteReq.missLatency::total     29449249                       # number of WriteReq miss ticks (Tick)
system.cpu.dcache.WriteReq.accesses::cpu.data       280179                       # number of WriteReq accesses(hits+misses) (Count)
system.cpu.dcache.WriteReq.accesses::total       280179                       # number of WriteReq accesses(hits+misses) (Count)
system.cpu.dcache.WriteReq.missRate::cpu.data     0.002281                       # miss rate for WriteReq accesses (Ratio)
system.cpu.dcache.WriteReq.missRate::total     0.002281                       # miss rate for WriteReq accesses (Ratio)
system.cpu.dcache.WriteReq.avgMissLatency::cpu.data 46086.461659                       # average WriteReq miss latency ((Tick/Count))
system.cpu.dcache.WriteReq.avgMissLatency::total 46086.461659                       # average WriteReq miss latency ((Tick/Count))
system.cpu.dcache.WriteReq.mshrHits::cpu.data            3                       # number of WriteReq MSHR hits (Count)
system.cpu.dcache.WriteReq.mshrHits::total            3                       # number of WriteReq MSHR hits (Count)
system.cpu.dcache.WriteReq.mshrMisses::cpu.data          636                       # number of WriteReq MSHR misses (Count)
system.cpu.dcache.WriteReq.mshrMisses::total          636                       # number of WriteReq MSHR misses (Count)
system.cpu.dcache.WriteReq.mshrMissLatency::cpu.data     29055749                       # number of WriteReq MSHR miss ticks (Tick)
system.cpu.dcache.WriteReq.mshrMissLatency::total     29055749                       # number of WriteReq MSHR miss ticks (Tick)
system.cpu.dcache.WriteReq.mshrMissRate::cpu.data     0.002270                       # mshr miss rate for WriteReq accesses (Ratio)
system.cpu.dcache.WriteReq.mshrMissRate::total     0.002270                       # mshr miss rate for WriteReq accesses (Ratio)
system.cpu.dcache.WriteReq.avgMshrMissLatency::cpu.data 45685.139937                       # average WriteReq mshr miss latency ((Tick/Count))
system.cpu.dcache.WriteReq.avgMshrMissLatency::total 45685.139937                       # average WriteReq mshr miss latency ((Tick/Count))
system.cpu.dcache.power_state.pwrStateResidencyTicks::UNDEFINED    470771250                       # Cumulative time (in ticks) in various power states (Tick)
system.cpu.dcache.tags.tagsInUse           676.872094                       # Average ticks per tags in use ((Tick/Count))
system.cpu.dcache.tags.totalRefs               723263                       # Total number of references to valid blocks. (Count)
system.cpu.dcache.tags.sampledRefs               1292                       # Sample count of references to valid blocks. (Count)
system.cpu.dcache.tags.avgRefs             559.801084                       # Average number of references to valid blocks. ((Count/Count))
system.cpu.dcache.tags.warmupTick              126250                       # The tick when the warmup percentage was hit. (Tick)
system.cpu.dcache.tags.occupancies::cpu.data   676.872094                       # Average occupied blocks per tick, per requestor ((Count/Tick))
system.cpu.dcache.tags.avgOccs::cpu.data     0.661008                       # Average percentage of cache occupancy ((Ratio/Tick))
system.cpu.dcache.tags.avgOccs::total        0.661008                       # Average percentage of cache occupancy ((Ratio/Tick))
system.cpu.dcache.tags.occupanciesTaskId::1024         1024                       # Occupied blocks per task id (Count)
system.cpu.dcache.tags.ageTaskId_1024::0           37                       # Occupied blocks per task id, per block age (Count)
system.cpu.dcache.tags.ageTaskId_1024::1          130                       # Occupied blocks per task id, per block age (Count)
system.cpu.dcache.tags.ageTaskId_1024::2          857                       # Occupied blocks per task id, per block age (Count)
system.cpu.dcache.tags.ratioOccsTaskId::1024            1                       # Ratio of occupied blocks and all blocks, per task id (Ratio)
system.cpu.dcache.tags.tagAccesses            1450036                       # Number of tag accesses (Count)
system.cpu.dcache.tags.dataAccesses           1450036                       # Number of data accesses (Count)
system.cpu.dcache.tags.power_state.pwrStateResidencyTicks::UNDEFINED    470771250                       # Cumulative time (in ticks) in various power states (Tick)
system.cpu.decode.idleCycles                   446764                       # Number of cycles decode is idle (Cycle)
system.cpu.decode.blockedCycles                324764                       # Number of cycles decode is blocked (Cycle)
system.cpu.decode.runCycles                    918151                       # Number of cycles decode is running (Cycle)
system.cpu.decode.unblockCycles                 87402                       # Number of cycles decode is unblocking (Cycle)
system.cpu.decode.squashCycles                  57273                       # Number of cycles decode is squashing (Cycle)
system.cpu.decode.branchResolved               278061                       # Number of times decode resolved a branch (Count)
system.cpu.decode.branchMispred                  1874                       # Number of times decode detected a branch misprediction (Count)
system.cpu.decode.decodedInsts                6751160                       # Number of instructions handled by decode (Count)
system.cpu.decode.squashedInsts                  9135                       # Number of squashed instructions handled by decode (Count)
system.cpu.dtb_walker_cache.blockedCycles::no_mshrs            0                       # number of cycles access was blocked (Cycle)
system.cpu.dtb_walker_cache.blockedCycles::no_targets            0                       # number of cycles access was blocked (Cycle)
system.cpu.dtb_walker_cache.blockedCauses::no_mshrs            0                       # number of times access was blocked (Count)
system.cpu.dtb_walker_cache.blockedCauses::no_targets            0                       # number of times access was blocked (Count)
system.cpu.dtb_walker_cache.avgBlocked::no_mshrs          nan                       # average number of cycles each access was blocked ((Cycle/Count))
system.cpu.dtb_walker_cache.avgBlocked::no_targets          nan                       # average number of cycles each access was blocked ((Cycle/Count))
system.cpu.dtb_walker_cache.replacements            0                       # number of replacements (Count)
system.cpu.dtb_walker_cache.power_state.pwrStateResidencyTicks::UNDEFINED    470771250                       # Cumulative time (in ticks) in various power states (Tick)
system.cpu.dtb_walker_cache.tags.tagsInUse            0                       # Average ticks per tags in use ((Tick/Count))
system.cpu.dtb_walker_cache.tags.totalRefs            0                       # Total number of references to valid blocks. (Count)
system.cpu.dtb_walker_cache.tags.sampledRefs            0                       # Sample count of references to valid blocks. (Count)
system.cpu.dtb_walker_cache.tags.avgRefs          nan                       # Average number of references to valid blocks. ((Count/Count))
system.cpu.dtb_walker_cache.tags.warmupTick            0                       # The tick when the warmup percentage was hit. (Tick)
system.cpu.dtb_walker_cache.tags.tagAccesses            0                       # Number of tag accesses (Count)
system.cpu.dtb_walker_cache.tags.dataAccesses            0                       # Number of data accesses (Count)
system.cpu.dtb_walker_cache.tags.power_state.pwrStateResidencyTicks::UNDEFINED    470771250                       # Cumulative time (in ticks) in various power states (Tick)
system.cpu.fetch.icacheStallCycles             497533                       # Number of cycles fetch is stalled on an Icache miss (Cycle)
system.cpu.fetch.insts                        4225459                       # Number of instructions fetch has processed (Count)
system.cpu.fetch.branches                      914423                       # Number of branches that fetch encountered (Count)
system.cpu.fetch.predictedBranches             299994                       # Number of branches that fetch has predicted taken (Count)
system.cpu.fetch.cycles                       1275996                       # Number of cycles fetch has run and was not squashing or blocked (Cycle)
system.cpu.fetch.squashCycles                  118154                       # Number of cycles fetch has spent squashing (Cycle)
system.cpu.fetch.miscStallCycles                  246                       # Number of cycles fetch has spent waiting on interrupts, or bad addresses, or out of MSHRs (Cycle)
system.cpu.fetch.pendingTrapStallCycles          1462                       # Number of stall cycles due to pending traps (Cycle)
system.cpu.fetch.pendingQuiesceStallCycles           23                       # Number of stall cycles due to pending quiesce instructions (Cycle)
system.cpu.fetch.icacheWaitRetryStallCycles           17                       # Number of stall cycles due to full MSHR (Cycle)
system.cpu.fetch.cacheLines                    455284                       # Number of cache lines fetched (Count)
system.cpu.fetch.icacheSquashes                 15329                       # Number of outstanding Icache misses that were squashed (Count)
system.cpu.fetch.nisnDist::samples            1834354                       # Number of instructions fetched each cycle (Total) (Count)
system.cpu.fetch.nisnDist::mean              3.835235                       # Number of instructions fetched each cycle (Total) (Count)
system.cpu.fetch.nisnDist::stdev             3.678206                       # Number of instructions fetched each cycle (Total) (Count)
system.cpu.fetch.nisnDist::underflows               0      0.00%      0.00% # Number of instructions fetched each cycle (Total) (Count)
system.cpu.fetch.nisnDist::0                   723068     39.42%     39.42% # Number of instructions fetched each cycle (Total) (Count)
system.cpu.fetch.nisnDist::1                   133759      7.29%     46.71% # Number of instructions fetched each cycle (Total) (Count)
system.cpu.fetch.nisnDist::2                    34837      1.90%     48.61% # Number of instructions fetched each cycle (Total) (Count)
system.cpu.fetch.nisnDist::3                    30750      1.68%     50.29% # Number of instructions fetched each cycle (Total) (Count)
system.cpu.fetch.nisnDist::4                    64197      3.50%     53.79% # Number of instructions fetched each cycle (Total) (Count)
system.cpu.fetch.nisnDist::5                    67639      3.69%     57.47% # Number of instructions fetched each cycle (Total) (Count)
system.cpu.fetch.nisnDist::6                    24519      1.34%     58.81% # Number of instructions fetched each cycle (Total) (Count)
system.cpu.fetch.nisnDist::7                    47281      2.58%     61.39% # Number of instructions fetched each cycle (Total) (Count)
system.cpu.fetch.nisnDist::8                   708304     38.61%    100.00% # Number of instructions fetched each cycle (Total) (Count)
system.cpu.fetch.nisnDist::overflows                0      0.00%    100.00% # Number of instructions fetched each cycle (Total) (Count)
system.cpu.fetch.nisnDist::min_value                0                       # Number of instructions fetched each cycle (Total) (Count)
system.cpu.fetch.nisnDist::max_value                8                       # Number of instructions fetched each cycle (Total) (Count)
system.cpu.fetch.nisnDist::total              1834354                       # Number of instructions fetched each cycle (Total) (Count)
system.cpu.fetch.branchRate                  0.485598                       # Number of branch fetches per cycle (Ratio)
system.cpu.fetch.rate                        2.243901                       # Number of inst fetches per cycle ((Count/Cycle))
system.cpu.icache.demandHits::cpu.inst         454659                       # number of demand (read+write) hits (Count)
system.cpu.icache.demandHits::total            454659                       # number of demand (read+write) hits (Count)
system.cpu.icache.overallHits::cpu.inst        454659                       # number of overall hits (Count)
system.cpu.icache.overallHits::total           454659                       # number of overall hits (Count)
system.cpu.icache.demandMisses::cpu.inst          625                       # number of demand (read+write) misses (Count)
system.cpu.icache.demandMisses::total             625                       # number of demand (read+write) misses (Count)
system.cpu.icache.overallMisses::cpu.inst          625                       # number of overall misses (Count)
system.cpu.icache.overallMisses::total            625                       # number of overall misses (Count)
system.cpu.icache.demandMissLatency::cpu.inst     29446500                       # number of demand (read+write) miss ticks (Tick)
system.cpu.icache.demandMissLatency::total     29446500                       # number of demand (read+write) miss ticks (Tick)
system.cpu.icache.overallMissLatency::cpu.inst     29446500                       # number of overall miss ticks (Tick)
system.cpu.icache.overallMissLatency::total     29446500                       # number of overall miss ticks (Tick)
system.cpu.icache.demandAccesses::cpu.inst       455284                       # number of demand (read+write) accesses (Count)
system.cpu.icache.demandAccesses::total        455284                       # number of demand (read+write) accesses (Count)
system.cpu.icache.overallAccesses::cpu.inst       455284                       # number of overall (read+write) accesses (Count)
system.cpu.icache.overallAccesses::total       455284                       # number of overall (read+write) accesses (Count)
system.cpu.icache.demandMissRate::cpu.inst     0.001373                       # miss rate for demand accesses (Ratio)
system.cpu.icache.demandMissRate::total      0.001373                       # miss rate for demand accesses (Ratio)
system.cpu.icache.overallMissRate::cpu.inst     0.001373                       # miss rate for overall accesses (Ratio)
system.cpu.icache.overallMissRate::total     0.001373                       # miss rate for overall accesses (Ratio)
system.cpu.icache.demandAvgMissLatency::cpu.inst 47114.400000                       # average overall miss latency ((Cycle/Count))
system.cpu.icache.demandAvgMissLatency::total 47114.400000                       # average overall miss latency ((Cycle/Count))
system.cpu.icache.overallAvgMissLatency::cpu.inst 47114.400000                       # average overall miss latency ((Cycle/Count))
system.cpu.icache.overallAvgMissLatency::total 47114.400000                       # average overall miss latency ((Cycle/Count))
system.cpu.icache.blockedCycles::no_mshrs          223                       # number of cycles access was blocked (Cycle)
system.cpu.icache.blockedCycles::no_targets            0                       # number of cycles access was blocked (Cycle)
system.cpu.icache.blockedCauses::no_mshrs            4                       # number of times access was blocked (Count)
system.cpu.icache.blockedCauses::no_targets            0                       # number of times access was blocked (Count)
system.cpu.icache.avgBlocked::no_mshrs      55.750000                       # average number of cycles each access was blocked ((Cycle/Count))
system.cpu.icache.avgBlocked::no_targets          nan                       # average number of cycles each access was blocked ((Cycle/Count))
system.cpu.icache.writebacks::writebacks           33                       # number of writebacks (Count)
system.cpu.icache.writebacks::total                33                       # number of writebacks (Count)
system.cpu.icache.demandMshrHits::cpu.inst          143                       # number of demand (read+write) MSHR hits (Count)
system.cpu.icache.demandMshrHits::total           143                       # number of demand (read+write) MSHR hits (Count)
system.cpu.icache.overallMshrHits::cpu.inst          143                       # number of overall MSHR hits (Count)
system.cpu.icache.overallMshrHits::total          143                       # number of overall MSHR hits (Count)
system.cpu.icache.demandMshrMisses::cpu.inst          482                       # number of demand (read+write) MSHR misses (Count)
system.cpu.icache.demandMshrMisses::total          482                       # number of demand (read+write) MSHR misses (Count)
system.cpu.icache.overallMshrMisses::cpu.inst          482                       # number of overall MSHR misses (Count)
system.cpu.icache.overallMshrMisses::total          482                       # number of overall MSHR misses (Count)
system.cpu.icache.demandMshrMissLatency::cpu.inst     23828250                       # number of demand (read+write) MSHR miss ticks (Tick)
system.cpu.icache.demandMshrMissLatency::total     23828250                       # number of demand (read+write) MSHR miss ticks (Tick)
system.cpu.icache.overallMshrMissLatency::cpu.inst     23828250                       # number of overall MSHR miss ticks (Tick)
system.cpu.icache.overallMshrMissLatency::total     23828250                       # number of overall MSHR miss ticks (Tick)
system.cpu.icache.demandMshrMissRate::cpu.inst     0.001059                       # mshr miss ratio for demand accesses (Ratio)
system.cpu.icache.demandMshrMissRate::total     0.001059                       # mshr miss ratio for demand accesses (Ratio)
system.cpu.icache.overallMshrMissRate::cpu.inst     0.001059                       # mshr miss ratio for overall accesses (Ratio)
system.cpu.icache.overallMshrMissRate::total     0.001059                       # mshr miss ratio for overall accesses (Ratio)
system.cpu.icache.demandAvgMshrMissLatency::cpu.inst 49436.203320                       # average overall mshr miss latency ((Cycle/Count))
system.cpu.icache.demandAvgMshrMissLatency::total 49436.203320                       # average overall mshr miss latency ((Cycle/Count))
system.cpu.icache.overallAvgMshrMissLatency::cpu.inst 49436.203320                       # average overall mshr miss latency ((Cycle/Count))
system.cpu.icache.overallAvgMshrMissLatency::total 49436.203320                       # average overall mshr miss latency ((Cycle/Count))
system.cpu.icache.replacements                     33                       # number of replacements (Count)
system.cpu.icache.ReadReq.hits::cpu.inst       454659                       # number of ReadReq hits (Count)
system.cpu.icache.ReadReq.hits::total          454659                       # number of ReadReq hits (Count)
system.cpu.icache.ReadReq.misses::cpu.inst          625                       # number of ReadReq misses (Count)
system.cpu.icache.ReadReq.misses::total           625                       # number of ReadReq misses (Count)
system.cpu.icache.ReadReq.missLatency::cpu.inst     29446500                       # number of ReadReq miss ticks (Tick)
system.cpu.icache.ReadReq.missLatency::total     29446500                       # number of ReadReq miss ticks (Tick)
system.cpu.icache.ReadReq.accesses::cpu.inst       455284                       # number of ReadReq accesses(hits+misses) (Count)
system.cpu.icache.ReadReq.accesses::total       455284                       # number of ReadReq accesses(hits+misses) (Count)
system.cpu.icache.ReadReq.missRate::cpu.inst     0.001373                       # miss rate for ReadReq accesses (Ratio)
system.cpu.icache.ReadReq.missRate::total     0.001373                       # miss rate for ReadReq accesses (Ratio)
system.cpu.icache.ReadReq.avgMissLatency::cpu.inst 47114.400000                       # average ReadReq miss latency ((Tick/Count))
system.cpu.icache.ReadReq.avgMissLatency::total 47114.400000                       # average ReadReq miss latency ((Tick/Count))
system.cpu.icache.ReadReq.mshrHits::cpu.inst          143                       # number of ReadReq MSHR hits (Count)
system.cpu.icache.ReadReq.mshrHits::total          143                       # number of ReadReq MSHR hits (Count)
system.cpu.icache.ReadReq.mshrMisses::cpu.inst          482                       # number of ReadReq MSHR misses (Count)
system.cpu.icache.ReadReq.mshrMisses::total          482                       # number of ReadReq MSHR misses (Count)
system.cpu.icache.ReadReq.mshrMissLatency::cpu.inst     23828250                       # number of ReadReq MSHR miss ticks (Tick)
system.cpu.icache.ReadReq.mshrMissLatency::total     23828250                       # number of ReadReq MSHR miss ticks (Tick)
system.cpu.icache.ReadReq.mshrMissRate::cpu.inst     0.001059                       # mshr miss rate for ReadReq accesses (Ratio)
system.cpu.icache.ReadReq.mshrMissRate::total     0.001059                       # mshr miss rate for ReadReq accesses (Ratio)
system.cpu.icache.ReadReq.avgMshrMissLatency::cpu.inst 49436.203320                       # average ReadReq mshr miss latency ((Tick/Count))
system.cpu.icache.ReadReq.avgMshrMissLatency::total 49436.203320                       # average ReadReq mshr miss latency ((Tick/Count))
system.cpu.icache.power_state.pwrStateResidencyTicks::UNDEFINED    470771250                       # Cumulative time (in ticks) in various power states (Tick)
system.cpu.icache.tags.tagsInUse           404.306549                       # Average ticks per tags in use ((Tick/Count))
system.cpu.icache.tags.totalRefs               455141                       # Total number of references to valid blocks. (Count)
system.cpu.icache.tags.sampledRefs                482                       # Sample count of references to valid blocks. (Count)
system.cpu.icache.tags.avgRefs             944.275934                       # Average number of references to valid blocks. ((Count/Count))
system.cpu.icache.tags.warmupTick               68750                       # The tick when the warmup percentage was hit. (Tick)
system.cpu.icache.tags.occupancies::cpu.inst   404.306549                       # Average occupied blocks per tick, per requestor ((Count/Tick))
system.cpu.icache.tags.avgOccs::cpu.inst     0.394831                       # Average percentage of cache occupancy ((Ratio/Tick))
system.cpu.icache.tags.avgOccs::total        0.394831                       # Average percentage of cache occupancy ((Ratio/Tick))
system.cpu.icache.tags.occupanciesTaskId::1024          448                       # Occupied blocks per task id (Count)
system.cpu.icache.tags.ageTaskId_1024::0           41                       # Occupied blocks per task id, per block age (Count)
system.cpu.icache.tags.ageTaskId_1024::2          407                       # Occupied blocks per task id, per block age (Count)
system.cpu.icache.tags.ratioOccsTaskId::1024     0.437500                       # Ratio of occupied blocks and all blocks, per task id (Ratio)
system.cpu.icache.tags.tagAccesses             911050                       # Number of tag accesses (Count)
system.cpu.icache.tags.dataAccesses            911050                       # Number of data accesses (Count)
system.cpu.icache.tags.power_state.pwrStateResidencyTicks::UNDEFINED    470771250                       # Cumulative time (in ticks) in various power states (Tick)
system.cpu.iew.idleCycles                           0                       # Number of cycles IEW is idle (Cycle)
system.cpu.iew.squashCycles                     57273                       # Number of cycles IEW is squashing (Cycle)
system.cpu.iew.blockCycles                     258769                       # Number of cycles IEW is blocking (Cycle)
system.cpu.iew.unblockCycles                     3336                       # Number of cycles IEW is unblocking (Cycle)
system.cpu.iew.dispatchedInsts                6014953                       # Number of instructions dispatched to IQ (Count)
system.cpu.iew.dispSquashedInsts                 4110                       # Number of squashed instructions skipped by dispatch (Count)
system.cpu.iew.dispLoadInsts                   510318                       # Number of dispatched load instructions (Count)
system.cpu.iew.dispStoreInsts                  381758                       # Number of dispatched store instructions (Count)
system.cpu.iew.dispNonSpecInsts                     1                       # Number of dispatched non-speculative instructions (Count)
system.cpu.iew.iqFullEvents                      1536                       # Number of times the IQ has become full, causing a stall (Count)
system.cpu.iew.lsqFullEvents                     1611                       # Number of times the LSQ has become full, causing a stall (Count)
system.cpu.iew.memOrderViolationEvents             25                       # Number of memory order violations (Count)
system.cpu.iew.predictedTakenIncorrect          25188                       # Number of branches that were predicted taken incorrectly (Count)
system.cpu.iew.predictedNotTakenIncorrect        33815                       # Number of branches that were predicted not taken incorrectly (Count)
system.cpu.iew.branchMispredicts                59003                       # Number of branch mispredicts detected at execute (Count)
system.cpu.iew.instsToCommit                  5524074                       # Cumulative count of insts sent to commit (Count)
system.cpu.iew.writebackCount                 5507137                       # Cumulative count of insts written-back (Count)
system.cpu.iew.producerInst                   3848753                       # Number of instructions producing a value (Count)
system.cpu.iew.consumerInst                   5598205                       # Number of instructions consuming a value (Count)
system.cpu.iew.wbRate                        2.924528                       # Insts written-back per cycle ((Count/Cycle))
system.cpu.iew.wbFanout                      0.687498                       # Average fanout of values written-back ((Count/Count))
system.cpu.interrupts.clk_domain.clock           4000                       # Clock period in ticks (Tick)
system.cpu.itb_walker_cache.blockedCycles::no_mshrs            0                       # number of cycles access was blocked (Cycle)
system.cpu.itb_walker_cache.blockedCycles::no_targets            0                       # number of cycles access was blocked (Cycle)
system.cpu.itb_walker_cache.blockedCauses::no_mshrs            0                       # number of times access was blocked (Count)
system.cpu.itb_walker_cache.blockedCauses::no_targets            0                       # number of times access was blocked (Count)
system.cpu.itb_walker_cache.avgBlocked::no_mshrs          nan                       # average number of cycles each access was blocked ((Cycle/Count))
system.cpu.itb_walker_cache.avgBlocked::no_targets          nan                       # average number of cycles each access was blocked ((Cycle/Count))
system.cpu.itb_walker_cache.replacements            0                       # number of replacements (Count)
system.cpu.itb_walker_cache.power_state.pwrStateResidencyTicks::UNDEFINED    470771250                       # Cumulative time (in ticks) in various power states (Tick)
system.cpu.itb_walker_cache.tags.tagsInUse            0                       # Average ticks per tags in use ((Tick/Count))
system.cpu.itb_walker_cache.tags.totalRefs            0                       # Total number of references to valid blocks. (Count)
system.cpu.itb_walker_cache.tags.sampledRefs            0                       # Sample count of references to valid blocks. (Count)
system.cpu.itb_walker_cache.tags.avgRefs          nan                       # Average number of references to valid blocks. ((Count/Count))
system.cpu.itb_walker_cache.tags.warmupTick            0                       # The tick when the warmup percentage was hit. (Tick)
system.cpu.itb_walker_cache.tags.tagAccesses            0                       # Number of tag accesses (Count)
system.cpu.itb_walker_cache.tags.dataAccesses            0                       # Number of data accesses (Count)
system.cpu.itb_walker_cache.tags.power_state.pwrStateResidencyTicks::UNDEFINED    470771250                       # Cumulative time (in ticks) in various power states (Tick)
system.cpu.lsq0.forwLoads                       37961                       # Number of loads that had data forwarded from stores (Count)
system.cpu.lsq0.squashedLoads                  134105                       # Number of loads squashed (Count)
system.cpu.lsq0.ignoredResponses                   46                       # Number of memory responses ignored because the instruction is squashed (Count)
system.cpu.lsq0.memOrderViolation                  25                       # Number of memory ordering violations (Count)
system.cpu.lsq0.squashedStores                 101580                       # Number of stores squashed (Count)
system.cpu.lsq0.rescheduledLoads                 1330                       # Number of loads that were rescheduled (Count)
system.cpu.lsq0.blockedByCache                     17                       # Number of times an access to memory failed due to the cache being blocked (Count)
system.cpu.lsq0.loadToUse::samples             376213                       # Distribution of cycle latency between the first time a load is issued and its completion (Unspecified)
system.cpu.lsq0.loadToUse::mean              3.478636                       # Distribution of cycle latency between the first time a load is issued and its completion (Unspecified)
system.cpu.lsq0.loadToUse::stdev             9.143640                       # Distribution of cycle latency between the first time a load is issued and its completion (Unspecified)
system.cpu.lsq0.loadToUse::0-9                 375120     99.71%     99.71% # Distribution of cycle latency between the first time a load is issued and its completion (Unspecified)
system.cpu.lsq0.loadToUse::10-19                   42      0.01%     99.72% # Distribution of cycle latency between the first time a load is issued and its completion (Unspecified)
system.cpu.lsq0.loadToUse::20-29                   44      0.01%     99.73% # Distribution of cycle latency between the first time a load is issued and its completion (Unspecified)
system.cpu.lsq0.loadToUse::30-39                   76      0.02%     99.75% # Distribution of cycle latency between the first time a load is issued and its completion (Unspecified)
system.cpu.lsq0.loadToUse::40-49                   84      0.02%     99.77% # Distribution of cycle latency between the first time a load is issued and its completion (Unspecified)
system.cpu.lsq0.loadToUse::50-59                   88      0.02%     99.80% # Distribution of cycle latency between the first time a load is issued and its completion (Unspecified)
system.cpu.lsq0.loadToUse::60-69                   23      0.01%     99.80% # Distribution of cycle latency between the first time a load is issued and its completion (Unspecified)
system.cpu.lsq0.loadToUse::70-79                   20      0.01%     99.81% # Distribution of cycle latency between the first time a load is issued and its completion (Unspecified)
system.cpu.lsq0.loadToUse::80-89                   24      0.01%     99.82% # Distribution of cycle latency between the first time a load is issued and its completion (Unspecified)
system.cpu.lsq0.loadToUse::90-99                    8      0.00%     99.82% # Distribution of cycle latency between the first time a load is issued and its completion (Unspecified)
[...]
system.mem_ctrls.dram.bwTotal::writebacks     25286166                       # Total bandwidth to/from this memory ((Byte/Second))
system.mem_ctrls.dram.bwTotal::cpu.inst      65526516                       # Total bandwidth to/from this memory ((Byte/Second))
system.mem_ctrls.dram.bwTotal::cpu.data     175643691                       # Total bandwidth to/from this memory ((Byte/Second))
system.mem_ctrls.dram.bwTotal::total        266456373                       # Total bandwidth to/from this memory ((Byte/Second))
system.mem_ctrls.dram.readBursts                 1757                       # Number of DRAM read bursts (Count)
system.mem_ctrls.dram.writeBursts                 188                       # Number of DRAM write bursts (Count)
system.mem_ctrls.dram.perBankRdBursts::0          118                       # Per bank write bursts (Count)
system.mem_ctrls.dram.perBankRdBursts::1          128                       # Per bank write bursts (Count)
system.mem_ctrls.dram.perBankRdBursts::2          144                       # Per bank write bursts (Count)
system.mem_ctrls.dram.perBankRdBursts::3          191                       # Per bank write bursts (Count)
system.mem_ctrls.dram.perBankRdBursts::4          136                       # Per bank write bursts (Count)
system.mem_ctrls.dram.perBankRdBursts::5          126                       # Per bank write bursts (Count)
system.mem_ctrls.dram.perBankRdBursts::6           39                       # Per bank write bursts (Count)
system.mem_ctrls.dram.perBankRdBursts::7          135                       # Per bank write bursts (Count)
system.mem_ctrls.dram.perBankRdBursts::8          207                       # Per bank write bursts (Count)
system.mem_ctrls.dram.perBankRdBursts::9          150                       # Per bank write bursts (Count)
system.mem_ctrls.dram.perBankRdBursts::10          158                       # Per bank write bursts (Count)
system.mem_ctrls.dram.perBankRdBursts::11           63                       # Per bank write bursts (Count)
system.mem_ctrls.dram.perBankRdBursts::12           19                       # Per bank write bursts (Count)
system.mem_ctrls.dram.perBankRdBursts::13           69                       # Per bank write bursts (Count)
system.mem_ctrls.dram.perBankRdBursts::14           41                       # Per bank write bursts (Count)
system.mem_ctrls.dram.perBankRdBursts::15           33                       # Per bank write bursts (Count)
system.mem_ctrls.dram.perBankWrBursts::0            9                       # Per bank write bursts (Count)
system.mem_ctrls.dram.perBankWrBursts::1            9                       # Per bank write bursts (Count)
system.mem_ctrls.dram.perBankWrBursts::2            0                       # Per bank write bursts (Count)
system.mem_ctrls.dram.perBankWrBursts::3            7                       # Per bank write bursts (Count)
system.mem_ctrls.dram.perBankWrBursts::4            4                       # Per bank write bursts (Count)
system.mem_ctrls.dram.perBankWrBursts::5           38                       # Per bank write bursts (Count)
system.mem_ctrls.dram.perBankWrBursts::6           20                       # Per bank write bursts (Count)
system.mem_ctrls.dram.perBankWrBursts::7           13                       # Per bank write bursts (Count)
system.mem_ctrls.dram.perBankWrBursts::8           12                       # Per bank write bursts (Count)
system.mem_ctrls.dram.perBankWrBursts::9            1                       # Per bank write bursts (Count)
system.mem_ctrls.dram.perBankWrBursts::10            1                       # Per bank write bursts (Count)
system.mem_ctrls.dram.perBankWrBursts::11           28                       # Per bank write bursts (Count)
system.mem_ctrls.dram.perBankWrBursts::12            7                       # Per bank write bursts (Count)
system.mem_ctrls.dram.perBankWrBursts::13           39                       # Per bank write bursts (Count)
system.mem_ctrls.dram.perBankWrBursts::14            0                       # Per bank write bursts (Count)
system.mem_ctrls.dram.perBankWrBursts::15            0                       # Per bank write bursts (Count)
system.mem_ctrls.dram.totQLat                11716750                       # Total ticks spent queuing (Tick)
system.mem_ctrls.dram.totBusLat               8785000                       # Total ticks spent in databus transfers (Tick)
system.mem_ctrls.dram.totMemAccLat           44660500                       # Total ticks spent from burst creation until serviced by the DRAM (Tick)
system.mem_ctrls.dram.avgQLat                 6668.61                       # Average queueing delay per DRAM burst ((Tick/Count))
system.mem_ctrls.dram.avgBusLat               5000.00                       # Average bus latency per DRAM burst ((Tick/Count))
system.mem_ctrls.dram.avgMemAccLat           25418.61                       # Average memory access latency per DRAM burst ((Tick/Count))
system.mem_ctrls.dram.readRowHits                1499                       # Number of row buffer hits during reads (Count)
system.mem_ctrls.dram.writeRowHits                160                       # Number of row buffer hits during writes (Count)
system.mem_ctrls.dram.readRowHitRate            85.32                       # Row buffer hit rate for reads (Ratio)
system.mem_ctrls.dram.writeRowHitRate           85.11                       # Row buffer hit rate for writes (Ratio)
system.mem_ctrls.dram.bytesPerActivate::samples          275                       # Bytes accessed per row activation (Byte)
system.mem_ctrls.dram.bytesPerActivate::mean   445.672727                       # Bytes accessed per row activation (Byte)
system.mem_ctrls.dram.bytesPerActivate::gmean   306.234990                       # Bytes accessed per row activation (Byte)
system.mem_ctrls.dram.bytesPerActivate::stdev   320.225004                       # Bytes accessed per row activation (Byte)
system.mem_ctrls.dram.bytesPerActivate::0-127           52     18.91%     18.91% # Bytes accessed per row activation (Byte)
system.mem_ctrls.dram.bytesPerActivate::128-255           42     15.27%     34.18% # Bytes accessed per row activation (Byte)
system.mem_ctrls.dram.bytesPerActivate::256-383           40     14.55%     48.73% # Bytes accessed per row activation (Byte)
system.mem_ctrls.dram.bytesPerActivate::384-511           19      6.91%     55.64% # Bytes accessed per row activation (Byte)
system.mem_ctrls.dram.bytesPerActivate::512-639           27      9.82%     65.45% # Bytes accessed per row activation (Byte)
system.mem_ctrls.dram.bytesPerActivate::640-767           16      5.82%     71.27% # Bytes accessed per row activation (Byte)
system.mem_ctrls.dram.bytesPerActivate::768-895           47     17.09%     88.36% # Bytes accessed per row activation (Byte)
system.mem_ctrls.dram.bytesPerActivate::896-1023           15      5.45%     93.82% # Bytes accessed per row activation (Byte)
system.mem_ctrls.dram.bytesPerActivate::1024-1151           17      6.18%    100.00% # Bytes accessed per row activation (Byte)
system.mem_ctrls.dram.bytesPerActivate::total          275                       # Bytes accessed per row activation (Byte)
system.mem_ctrls.dram.bytesRead                112448                       # Total bytes read (Byte)
system.mem_ctrls.dram.bytesWritten              12032                       # Total bytes written (Byte)
system.mem_ctrls.dram.avgRdBW              238.859106                       # Average DRAM read bandwidth in MiBytes/s ((Byte/Second))
system.mem_ctrls.dram.avgWrBW               25.558060                       # Average DRAM write bandwidth in MiBytes/s ((Byte/Second))
system.mem_ctrls.dram.peakBW                 12800.00                       # Theoretical peak bandwidth in MiByte/s ((Byte/Second))
system.mem_ctrls.dram.busUtil                    2.07                       # Data bus utilization in percentage (Ratio)
system.mem_ctrls.dram.busUtilRead                1.87                       # Data bus utilization in percentage for reads (Ratio)
system.mem_ctrls.dram.busUtilWrite               0.20                       # Data bus utilization in percentage for writes (Ratio)
system.mem_ctrls.dram.pageHitRate               85.30                       # Row buffer hit rate, read and write combined (Ratio)
system.mem_ctrls.dram.power_state.pwrStateResidencyTicks::UNDEFINED    470771250                       # Cumulative time (in ticks) in various power states (Tick)
system.mem_ctrls.dram.rank0.actEnergy         1192380                       # Energy for activate commands per rank (pJ) (Joule)
system.mem_ctrls.dram.rank0.preEnergy          614790                       # Energy for precharge commands per rank (pJ) (Joule)
system.mem_ctrls.dram.rank0.readEnergy        7261380                       # Energy for read commands per rank (pJ) (Joule)
system.mem_ctrls.dram.rank0.writeEnergy        522000                       # Energy for write commands per rank (pJ) (Joule)
system.mem_ctrls.dram.rank0.refreshEnergy 36878400.000000                       # Energy for refresh commands per rank (pJ) (Joule)
system.mem_ctrls.dram.rank0.actBackEnergy    166533480                       # Energy for active background per rank (pJ) (Joule)
system.mem_ctrls.dram.rank0.preBackEnergy     40537440                       # Energy for precharge background per rank (pJ) (Joule)
system.mem_ctrls.dram.rank0.actPowerDownEnergy            0                       # Energy for active power-down per rank (pJ) (Joule)
system.mem_ctrls.dram.rank0.prePowerDownEnergy            0                       # Energy for precharge power-down per rank (pJ) (Joule)
system.mem_ctrls.dram.rank0.selfRefreshEnergy            0                       # Energy for self refresh per rank (pJ) (Joule)
system.mem_ctrls.dram.rank0.totalEnergy     253539870                       # Total energy per rank (pJ) (Joule)
system.mem_ctrls.dram.rank0.averagePower   538.562773                       # Core power per rank (mW) (Watt)
system.mem_ctrls.dram.rank0.totalIdleTime            0                       # Total Idle time Per DRAM Rank (Tick)
system.mem_ctrls.dram.rank0.pwrStateTime::IDLE    104008000                       # Time in different power states (Tick)
system.mem_ctrls.dram.rank0.pwrStateTime::REF     15600000                       # Time in different power states (Tick)
system.mem_ctrls.dram.rank0.pwrStateTime::SREF            0                       # Time in different power states (Tick)
system.mem_ctrls.dram.rank0.pwrStateTime::PRE_PDN            0                       # Time in different power states (Tick)
system.mem_ctrls.dram.rank0.pwrStateTime::ACT    351163250                       # Time in different power states (Tick)
system.mem_ctrls.dram.rank0.pwrStateTime::ACT_PDN            0                       # Time in different power states (Tick)
system.mem_ctrls.dram.rank1.actEnergy          849660                       # Energy for activate commands per rank (pJ) (Joule)
system.mem_ctrls.dram.rank1.preEnergy          428835                       # Energy for precharge commands per rank (pJ) (Joule)
system.mem_ctrls.dram.rank1.readEnergy        5283600                       # Energy for read commands per rank (pJ) (Joule)
system.mem_ctrls.dram.rank1.writeEnergy        459360                       # Energy for write commands per rank (pJ) (Joule)
system.mem_ctrls.dram.rank1.refreshEnergy 36878400.000000                       # Energy for refresh commands per rank (pJ) (Joule)
system.mem_ctrls.dram.rank1.actBackEnergy    136136520                       # Energy for active background per rank (pJ) (Joule)
system.mem_ctrls.dram.rank1.preBackEnergy     66134880                       # Energy for precharge background per rank (pJ) (Joule)
system.mem_ctrls.dram.rank1.actPowerDownEnergy            0                       # Energy for active power-down per rank (pJ) (Joule)
system.mem_ctrls.dram.rank1.prePowerDownEnergy            0                       # Energy for precharge power-down per rank (pJ) (Joule)
system.mem_ctrls.dram.rank1.selfRefreshEnergy            0                       # Energy for self refresh per rank (pJ) (Joule)
system.mem_ctrls.dram.rank1.totalEnergy     246171255                       # Total energy per rank (pJ) (Joule)
system.mem_ctrls.dram.rank1.averagePower   522.910554                       # Core power per rank (mW) (Watt)
system.mem_ctrls.dram.rank1.totalIdleTime            0                       # Total Idle time Per DRAM Rank (Tick)
system.mem_ctrls.dram.rank1.pwrStateTime::IDLE    170767000                       # Time in different power states (Tick)
system.mem_ctrls.dram.rank1.pwrStateTime::REF     15600000                       # Time in different power states (Tick)
system.mem_ctrls.dram.rank1.pwrStateTime::SREF            0                       # Time in different power states (Tick)
system.mem_ctrls.dram.rank1.pwrStateTime::PRE_PDN            0                       # Time in different power states (Tick)
system.mem_ctrls.dram.rank1.pwrStateTime::ACT    284404250                       # Time in different power states (Tick)
system.mem_ctrls.dram.rank1.pwrStateTime::ACT_PDN            0                       # Time in different power states (Tick)
system.mem_ctrls.power_state.pwrStateResidencyTicks::UNDEFINED    470771250                       # Cumulative time (in ticks) in various power states (Tick)
system.membus.transDist::ReadResp                1139                       # Transaction distribution (Count)
system.membus.transDist::WritebackDirty           186                       # Transaction distribution (Count)
system.membus.transDist::WritebackClean            33                       # Transaction distribution (Count)
system.membus.transDist::CleanEvict                82                       # Transaction distribution (Count)
system.membus.transDist::UpgradeReq                 1                       # Transaction distribution (Count)
system.membus.transDist::ReadExReq                635                       # Transaction distribution (Count)
system.membus.transDist::ReadExResp               635                       # Transaction distribution (Count)
system.membus.transDist::ReadCleanReq             482                       # Transaction distribution (Count)
system.membus.transDist::ReadSharedReq            657                       # Transaction distribution (Count)
system.membus.pktCount_system.cpu.icache.mem_side_port::system.mem_ctrls.port          997                       # Packet count per connected requestor and responder (Count)
system.membus.pktCount_system.cpu.icache.mem_side_port::total          997                       # Packet count per connected requestor and responder (Count)
system.membus.pktCount_system.cpu.dcache.mem_side_port::system.mem_ctrls.port         2853                       # Packet count per connected requestor and responder (Count)
system.membus.pktCount_system.cpu.dcache.mem_side_port::total         2853                       # Packet count per connected requestor and responder (Count)
system.membus.pktCount::total                    3850                       # Packet count per connected requestor and responder (Count)
system.membus.pktSize_system.cpu.icache.mem_side_port::system.mem_ctrls.port        32960                       # Cumulative packet size per connected requestor and responder (Byte)
system.membus.pktSize_system.cpu.icache.mem_side_port::total        32960                       # Cumulative packet size per connected requestor and responder (Byte)
system.membus.pktSize_system.cpu.dcache.mem_side_port::system.mem_ctrls.port        94592                       # Cumulative packet size per connected requestor and responder (Byte)
system.membus.pktSize_system.cpu.dcache.mem_side_port::total        94592                       # Cumulative packet size per connected requestor and responder (Byte)
system.membus.pktSize::total                   127552                       # Cumulative packet size per connected requestor and responder (Byte)
system.membus.snoops                                0                       # Total snoops (Count)
system.membus.snoopTraffic                          0                       # Total snoop traffic (Byte)
system.membus.snoopFanout::samples               1775                       # Request fanout histogram (Count)
system.membus.snoopFanout::mean              0.001127                       # Request fanout histogram (Count)
system.membus.snoopFanout::stdev             0.033558                       # Request fanout histogram (Count)
system.membus.snoopFanout::underflows               0      0.00%      0.00% # Request fanout histogram (Count)
system.membus.snoopFanout::0                     1773     99.89%     99.89% # Request fanout histogram (Count)
system.membus.snoopFanout::1                        2      0.11%    100.00% # Request fanout histogram (Count)
system.membus.snoopFanout::2                        0      0.00%    100.00% # Request fanout histogram (Count)
system.membus.snoopFanout::3                        0      0.00%    100.00% # Request fanout histogram (Count)
system.membus.snoopFanout::4                        0      0.00%    100.00% # Request fanout histogram (Count)
system.membus.snoopFanout::overflows                0      0.00%    100.00% # Request fanout histogram (Count)
system.membus.snoopFanout::min_value                0                       # Request fanout histogram (Count)
system.membus.snoopFanout::max_value                1                       # Request fanout histogram (Count)
system.membus.snoopFanout::total                 1775                       # Request fanout histogram (Count)
system.membus.power_state.pwrStateResidencyTicks::UNDEFINED    470771250                       # Cumulative time (in ticks) in various power states (Tick)
system.membus.reqLayer2.occupancy              738000                       # Layer occupancy (ticks) (Tick)
system.membus.reqLayer2.utilization               0.0                       # Layer utilization (Ratio)
system.membus.respLayer1.occupancy             602500                       # Layer occupancy (ticks) (Tick)
system.membus.respLayer1.utilization              0.0                       # Layer utilization (Ratio)
system.membus.respLayer2.occupancy            1615000                       # Layer occupancy (ticks) (Tick)
system.membus.respLayer2.utilization              0.0                       # Layer utilization (Ratio)
system.membus.snoop_filter.totRequests           2076                       # Total number of requests made to the snoop filter. (Count)
system.membus.snoop_filter.hitSingleRequests          302                       # Number of requests hitting in the snoop filter with a single holder of the requested data. (Count)
system.membus.snoop_filter.hitMultiRequests            1                       # Number of requests hitting in the snoop filter with multiple (>1) holders of the requested data. (Count)
system.membus.snoop_filter.totSnoops                0                       # Total number of snoops made to the snoop filter. (Count)
system.membus.snoop_filter.hitSingleSnoops            0                       # Number of snoops hitting in the snoop filter with a single holder of the requested data. (Count)
system.membus.snoop_filter.hitMultiSnoops            0                       # Number of snoops hitting in the snoop filter with multiple (>1) holders of the requested data. (Count)
system.voltage_domain.voltage                       1                       # Voltage in Volts (Volt)
system.workload.inst.arm                            0                       # number of arm instructions executed (Count)
system.workload.inst.quiesce                        0                       # number of quiesce instructions executed (Count)

---------- End Simulation Statistics   ----------
