
---------- Begin Simulation Statistics ----------
simSeconds                                   0.020077                       # Number of seconds simulated (Second)
simTicks                                  20076925000                       # Number of ticks simulated (Tick)
finalTick                                 20076925000                       # Number of ticks from beginning of simulation (restored from checkpoints and never reset) (Tick)
simFreq                                  1000000000000                       # The number of ticks per simulated second ((Tick/Second))
hostSeconds                                     30.01                       # Real time elapsed on the host (Second)
hostTickRate                                669095536                       # The number of ticks simulated per host second (ticks/s) ((Tick/Second))
hostMemory                                     652908                       # Number of bytes of host memory used (Byte)
simInsts                                      8104179                       # Number of instructions simulated (Count)
simOps                                       14470638                       # Number of ops (including micro ops) simulated (Count)
hostInstRate                                   270083                       # Simulator instruction rate (inst/s) ((Count/Second))
hostOpRate                                     482255                       # Simulator op (including micro ops) rate (op/s) ((Count/Second))
system.clk_domain.clock                          1000                       # Clock period in ticks (Tick)
system.cpu.numCycles                         20076925                       # Number of cpu cycles simulated (Cycle)
system.cpu.numWorkItemsStarted                      0                       # Number of work items this cpu started (Count)
system.cpu.numWorkItemsCompleted                    0                       # Number of work items this cpu completed (Count)
system.cpu.numInsts                           8104179                       # Number of instructions committed (Count)
system.cpu.numOps                            14470638                       # Number of ops (including micro ops) committed (Count)
system.cpu.numDiscardedOps                    1773332                       # Number of ops (including micro ops) which were discarded before commit (Count)
system.cpu.numFetchSuspends                         0                       # Number of times Execute suspended instruction fetching (Count)
system.cpu.cpi                               2.477355                       # CPI: cycles per instruction ((Cycle/Count))
system.cpu.ipc                               0.403656                       # IPC: instructions per cycle ((Count/Cycle))
system.cpu.committedInstType_0::No_OpClass          443      0.00%      0.00% # Class of committed instruction (Count)
system.cpu.committedInstType_0::IntAlu        2539050     17.55%     17.55% # Class of committed instruction (Count)
system.cpu.committedInstType_0::IntMult             5      0.00%     17.55% # Class of committed instruction (Count)
system.cpu.committedInstType_0::IntDiv             21      0.00%     17.55% # Class of committed instruction (Count)
system.cpu.committedInstType_0::FloatAdd      4718727     32.61%     50.16% # Class of committed instruction (Count)
system.cpu.committedInstType_0::FloatCmp            0      0.00%     50.16% # Class of committed instruction (Count)
system.cpu.committedInstType_0::FloatCvt            0      0.00%     50.16% # Class of committed instruction (Count)
system.cpu.committedInstType_0::FloatMult            0      0.00%     50.16% # Class of committed instruction (Count)
system.cpu.committedInstType_0::FloatMultAcc            0      0.00%     50.16% # Class of committed instruction (Count)
system.cpu.committedInstType_0::FloatDiv            0      0.00%     50.16% # Class of committed instruction (Count)
system.cpu.committedInstType_0::FloatMisc            0      0.00%     50.16% # Class of committed instruction (Count)
system.cpu.committedInstType_0::FloatSqrt            0      0.00%     50.16% # Class of committed instruction (Count)
system.cpu.committedInstType_0::SimdAdd             0      0.00%     50.16% # Class of committed instruction (Count)
system.cpu.committedInstType_0::SimdAddAcc            0      0.00%     50.16% # Class of committed instruction (Count)
system.cpu.committedInstType_0::SimdAlu            94      0.00%     50.16% # Class of committed instruction (Count)
system.cpu.committedInstType_0::SimdCmp             0      0.00%     50.16% # Class of committed instruction (Count)
system.cpu.committedInstType_0::SimdCvt            46      0.00%     50.16% # Class of committed instruction (Count)
system.cpu.committedInstType_0::SimdMisc       262359      1.81%     51.97% # Class of committed instruction (Count)
system.cpu.committedInstType_0::SimdMult            0      0.00%     51.97% # Class of committed instruction (Count)
system.cpu.committedInstType_0::SimdMultAcc            0      0.00%     51.97% # Class of committed instruction (Count)
system.cpu.committedInstType_0::SimdShift            0      0.00%     51.97% # Class of committed instruction (Count)
system.cpu.committedInstType_0::SimdShiftAcc            0      0.00%     51.97% # Class of committed instruction (Count)
system.cpu.committedInstType_0::SimdDiv             0      0.00%     51.97% # Class of committed instruction (Count)
system.cpu.committedInstType_0::SimdSqrt            0      0.00%     51.97% # Class of committed instruction (Count)
system.cpu.committedInstType_0::SimdFloatAdd      2097152     14.49%     66.46% # Class of committed instruction (Count)
system.cpu.committedInstType_0::SimdFloatAlu            0      0.00%     66.46% # Class of committed instruction (Count)
system.cpu.committedInstType_0::SimdFloatCmp            0      0.00%     66.46% # Class of committed instruction (Count)
system.cpu.committedInstType_0::SimdFloatCvt            0      0.00%     66.46% # Class of committed instruction (Count)
system.cpu.committedInstType_0::SimdFloatDiv            0      0.00%     66.46% # Class of committed instruction (Count)
system.cpu.committedInstType_0::SimdFloatMisc            0      0.00%     66.46% # Class of committed instruction (Count)
system.cpu.committedInstType_0::SimdFloatMult      2097152     14.49%     80.96% # Class of committed instruction (Count)
system.cpu.committedInstType_0::SimdFloatMultAcc            0      0.00%     80.96% # Class of committed instruction (Count)
system.cpu.committedInstType_0::SimdFloatSqrt            0      0.00%     80.96% # Class of committed instruction (Count)
system.cpu.committedInstType_0::SimdReduceAdd            0      0.00%     80.96% # Class of committed instruction (Count)
system.cpu.committedInstType_0::SimdReduceAlu            0      0.00%     80.96% # Class of committed instruction (Count)
system.cpu.committedInstType_0::SimdReduceCmp            0      0.00%     80.96% # Class of committed instruction (Count)
system.cpu.committedInstType_0::SimdFloatReduceAdd            0      0.00%     80.96% # Class of committed instruction (Count)
system.cpu.committedInstType_0::SimdFloatReduceCmp            0      0.00%     80.96% # Class of committed instruction (Count)
system.cpu.committedInstType_0::SimdAes             0      0.00%     80.96% # Class of committed instruction (Count)
system.cpu.committedInstType_0::SimdAesMix            0      0.00%     80.96% # Class of committed instruction (Count)
system.cpu.committedInstType_0::SimdSha1Hash            0      0.00%     80.96% # Class of committed instruction (Count)
system.cpu.committedInstType_0::SimdSha1Hash2            0      0.00%     80.96% # Class of committed instruction (Count)
system.cpu.committedInstType_0::SimdSha256Hash            0      0.00%     80.96% # Class of committed instruction (Count)
system.cpu.committedInstType_0::SimdSha256Hash2            0      0.00%     80.96% # Class of committed instruction (Count)
system.cpu.committedInstType_0::SimdShaSigma2            0      0.00%     80.96% # Class of committed instruction (Count)
system.cpu.committedInstType_0::SimdShaSigma3            0      0.00%     80.96% # Class of committed instruction (Count)
system.cpu.committedInstType_0::SimdPredAlu            0      0.00%     80.96% # Class of committed instruction (Count)
system.cpu.committedInstType_0::MemRead          1438      0.01%     80.97% # Class of committed instruction (Count)
system.cpu.committedInstType_0::MemWrite         1134      0.01%     80.98% # Class of committed instruction (Count)
system.cpu.committedInstType_0::FloatMemRead      2621486     18.12%     99.09% # Class of committed instruction (Count)
system.cpu.committedInstType_0::FloatMemWrite       131531      0.91%    100.00% # Class of committed instruction (Count)
system.cpu.committedInstType_0::IprAccess            0      0.00%    100.00% # Class of committed instruction (Count)
system.cpu.committedInstType_0::InstPrefetch            0      0.00%    100.00% # Class of committed instruction (Count)
system.cpu.committedInstType_0::total        14470638                       # Class of committed instruction (Count)
system.cpu.branchPred.lookups                       0                       # Number of BP lookups (Count)
system.cpu.branchPred.condPredicted                 0                       # Number of conditional branches predicted (Count)
system.cpu.branchPred.condIncorrect                 0                       # Number of conditional branches incorrect (Count)
system.cpu.branchPred.BTBLookups                    0                       # Number of BTB lookups (Count)
system.cpu.branchPred.BTBHits                       0                       # Number of BTB hits (Count)
system.cpu.branchPred.BTBHitRatio                 nan                       # BTB Hit Ratio (Ratio)
system.cpu.branchPred.RASUsed                       0                       # Number of times the RAS was used to get a target. (Count)
system.cpu.branchPred.RASIncorrect                  0                       # Number of incorrect RAS predictions. (Count)
system.cpu.branchPred.indirectLookups               0                       # Number of indirect predictor lookups. (Count)
system.cpu.branchPred.indirectHits                  0                       # Number of indirect target hits. (Count)
system.cpu.branchPred.indirectMisses                0                       # Number of indirect misses. (Count)
system.cpu.branchPred.indirectMispredicted            0                       # Number of mispredicted indirect branches. (Count)
system.cpu.dcache.demandHits::cpu.data        2851385                       # number of demand (read+write) hits (Count)
system.cpu.dcache.demandHits::total           2851385                       # number of demand (read+write) hits (Count)
system.cpu.dcache.overallHits::cpu.data       2851385                       # number of overall hits (Count)
system.cpu.dcache.overallHits::total          2851385                       # number of overall hits (Count)
system.cpu.dcache.demandMisses::cpu.data        35566                       # number of demand (read+write) misses (Count)
system.cpu.dcache.demandMisses::total           35566                       # number of demand (read+write) misses (Count)
system.cpu.dcache.overallMisses::cpu.data        35566                       # number of overall misses (Count)
system.cpu.dcache.overallMisses::total          35566                       # number of overall misses (Count)
system.cpu.dcache.demandMissLatency::cpu.data   1796244000                       # number of demand (read+write) miss ticks (Tick)
system.cpu.dcache.demandMissLatency::total   1796244000                       # number of demand (read+write) miss ticks (Tick)
system.cpu.dcache.overallMissLatency::cpu.data   1796244000                       # number of overall miss ticks (Tick)
system.cpu.dcache.overallMissLatency::total   1796244000                       # number of overall miss ticks (Tick)
system.cpu.dcache.demandAccesses::cpu.data      2886951                       # number of demand (read+write) accesses (Count)
system.cpu.dcache.demandAccesses::total       2886951                       # number of demand (read+write) accesses (Count)
system.cpu.dcache.overallAccesses::cpu.data      2886951                       # number of overall (read+write) accesses (Count)
system.cpu.dcache.overallAccesses::total      2886951                       # number of overall (read+write) accesses (Count)
system.cpu.dcache.demandMissRate::cpu.data     0.012320                       # miss rate for demand accesses (Ratio)
system.cpu.dcache.demandMissRate::total      0.012320                       # miss rate for demand accesses (Ratio)
system.cpu.dcache.overallMissRate::cpu.data     0.012320                       # miss rate for overall accesses (Ratio)
system.cpu.dcache.overallMissRate::total     0.012320                       # miss rate for overall accesses (Ratio)
system.cpu.dcache.demandAvgMissLatency::cpu.data 50504.526795                       # average overall miss latency ((Cycle/Count))
system.cpu.dcache.demandAvgMissLatency::total 50504.526795                       # average overall miss latency ((Cycle/Count))
system.cpu.dcache.overallAvgMissLatency::cpu.data 50504.526795                       # average overall miss latency ((Cycle/Count))
system.cpu.dcache.overallAvgMissLatency::total 50504.526795                       # average overall miss latency ((Cycle/Count))
system.cpu.dcache.blockedCycles::no_mshrs            0                       # number of cycles access was blocked (Cycle)
system.cpu.dcache.blockedCycles::no_targets            0                       # number of cycles access was blocked (Cycle)
system.cpu.dcache.blockedCauses::no_mshrs            0                       # number of times access was blocked (Count)
system.cpu.dcache.blockedCauses::no_targets            0                       # number of times access was blocked (Count)
system.cpu.dcache.avgBlocked::no_mshrs            nan                       # average number of cycles each access was blocked ((Cycle/Count))
system.cpu.dcache.avgBlocked::no_targets          nan                       # average number of cycles each access was blocked ((Cycle/Count))
system.cpu.dcache.writebacks::writebacks        11967                       # number of writebacks (Count)
system.cpu.dcache.writebacks::total             11967                       # number of writebacks (Count)
system.cpu.dcache.demandMshrHits::cpu.data        12000                       # number of demand (read+write) MSHR hits (Count)
system.cpu.dcache.demandMshrHits::total         12000                       # number of demand (read+write) MSHR hits (Count)
system.cpu.dcache.overallMshrHits::cpu.data        12000                       # number of overall MSHR hits (Count)
system.cpu.dcache.overallMshrHits::total        12000                       # number of overall MSHR hits (Count)
system.cpu.dcache.demandMshrMisses::cpu.data        23566                       # number of demand (read+write) MSHR misses (Count)
system.cpu.dcache.demandMshrMisses::total        23566                       # number of demand (read+write) MSHR misses (Count)
system.cpu.dcache.overallMshrMisses::cpu.data        23566                       # number of overall MSHR misses (Count)
system.cpu.dcache.overallMshrMisses::total        23566                       # number of overall MSHR misses (Count)
system.cpu.dcache.demandMshrMissLatency::cpu.data   1199159000                       # number of demand (read+write) MSHR miss ticks (Tick)
system.cpu.dcache.demandMshrMissLatency::total   1199159000                       # number of demand (read+write) MSHR miss ticks (Tick)
system.cpu.dcache.overallMshrMissLatency::cpu.data   1199159000                       # number of overall MSHR miss ticks (Tick)
system.cpu.dcache.overallMshrMissLatency::total   1199159000                       # number of overall MSHR miss ticks (Tick)
system.cpu.dcache.demandMshrMissRate::cpu.data     0.008163                       # mshr miss ratio for demand accesses (Ratio)
system.cpu.dcache.demandMshrMissRate::total     0.008163                       # mshr miss ratio for demand accesses (Ratio)
system.cpu.dcache.overallMshrMissRate::cpu.data     0.008163                       # mshr miss ratio for overall accesses (Ratio)
system.cpu.dcache.overallMshrMissRate::total     0.008163                       # mshr miss ratio for overall accesses (Ratio)
system.cpu.dcache.demandAvgMshrMissLatency::cpu.data 50885.131121                       # average overall mshr miss latency ((Cycle/Count))
system.cpu.dcache.demandAvgMshrMissLatency::total 50885.131121                       # average overall mshr miss latency ((Cycle/Count))
system.cpu.dcache.overallAvgMshrMissLatency::cpu.data 50885.131121                       # average overall mshr miss latency ((Cycle/Count))
system.cpu.dcache.overallAvgMshrMissLatency::total 50885.131121                       # average overall mshr miss latency ((Cycle/Count))
system.cpu.dcache.replacements                  22542                       # number of replacements (Count)
system.cpu.dcache.ReadReq.hits::cpu.data      2719938                       # number of ReadReq hits (Count)
system.cpu.dcache.ReadReq.hits::total         2719938                       # number of ReadReq hits (Count)
system.cpu.dcache.ReadReq.misses::cpu.data        34349                       # number of ReadReq misses (Count)
system.cpu.dcache.ReadReq.misses::total         34349                       # number of ReadReq misses (Count)
system.cpu.dcache.ReadReq.missLatency::cpu.data   1726048000                       # number of ReadReq miss ticks (Tick)
system.cpu.dcache.ReadReq.missLatency::total   1726048000                       # number of ReadReq miss ticks (Tick)
system.cpu.dcache.ReadReq.accesses::cpu.data      2754287                       # number of ReadReq accesses(hits+misses) (Count)
system.cpu.dcache.ReadReq.accesses::total      2754287                       # number of ReadReq accesses(hits+misses) (Count)
system.cpu.dcache.ReadReq.missRate::cpu.data     0.012471                       # miss rate for ReadReq accesses (Ratio)
system.cpu.dcache.ReadReq.missRate::total     0.012471                       # miss rate for ReadReq accesses (Ratio)
system.cpu.dcache.ReadReq.avgMissLatency::cpu.data 50250.312964                       # average ReadReq miss latency ((Tick/Count))
system.cpu.dcache.ReadReq.avgMissLatency::total 50250.312964                       # average ReadReq miss latency ((Tick/Count))
system.cpu.dcache.ReadReq.mshrHits::cpu.data        11410                       # number of ReadReq MSHR hits (Count)
system.cpu.dcache.ReadReq.mshrHits::total        11410                       # number of ReadReq MSHR hits (Count)
system.cpu.dcache.ReadReq.mshrMisses::cpu.data        22939                       # number of ReadReq MSHR misses (Count)
system.cpu.dcache.ReadReq.mshrMisses::total        22939                       # number of ReadReq MSHR misses (Count)
system.cpu.dcache.ReadReq.mshrMissLatency::cpu.data   1164870000                       # number of ReadReq MSHR miss ticks (Tick)
system.cpu.dcache.ReadReq.mshrMissLatency::total   1164870000                       # number of ReadReq MSHR miss ticks (Tick)
system.cpu.dcache.ReadReq.mshrMissRate::cpu.data     0.008328                       # mshr miss rate for ReadReq accesses (Ratio)
system.cpu.dcache.ReadReq.mshrMissRate::total     0.008328                       # mshr miss rate for ReadReq accesses (Ratio)
system.cpu.dcache.ReadReq.avgMshrMissLatency::cpu.data 50781.202319                       # average ReadReq mshr miss latency ((Tick/Count))
system.cpu.dcache.ReadReq.avgMshrMissLatency::total 50781.202319                       # average ReadReq mshr miss latency ((Tick/Count))
system.cpu.dcache.WriteReq.hits::cpu.data       131447                       # number of WriteReq hits (Count)
system.cpu.dcache.WriteReq.hits::total         131447                       # number of WriteReq hits (Count)
system.cpu.dcache.WriteReq.misses::cpu.data         1217                       # number of WriteReq misses (Count)
system.cpu.dcache.WriteReq.misses::total         1217                       # number of WriteReq misses (Count)
system.cpu.dcache.WriteReq.missLatency::cpu.data     70196000                       # number of WriteReq miss ticks (Tick)
system.cpu.dcache.WriteReq.missLatency::total     70196000                       # number of WriteReq miss ticks (Tick)
system.cpu.dcache.WriteReq.accesses::cpu.data       132664                       # number of WriteReq accesses(hits+misses) (Count)
system.cpu.dcache.WriteReq.accesses::total       132664                       # number of WriteReq accesses(hits+misses) (Count)
system.cpu.dcache.WriteReq.missRate::cpu.data     0.009174                       # miss rate for WriteReq accesses (Ratio)
system.cpu.dcache.WriteReq.missRate::total     0.009174                       # miss rate for WriteReq accesses (Ratio)
system.cpu.dcache.WriteReq.avgMissLatency::cpu.data 57679.539852                       # average WriteReq miss latency ((Tick/Count))
system.cpu.dcache.WriteReq.avgMissLatency::total 57679.539852                       # average WriteReq miss latency ((Tick/Count))
system.cpu.dcache.WriteReq.mshrHits::cpu.data          590                       # number of WriteReq MSHR hits (Count)
system.cpu.dcache.WriteReq.mshrHits::total          590                       # number of WriteReq MSHR hits (Count)
system.cpu.dcache.WriteReq.mshrMisses::cpu.data          627                       # number of WriteReq MSHR misses (Count)
system.cpu.dcache.WriteReq.mshrMisses::total          627                       # number of WriteReq MSHR misses (Count)
system.cpu.dcache.WriteReq.mshrMissLatency::cpu.data     34289000                       # number of WriteReq MSHR miss ticks (Tick)
system.cpu.dcache.WriteReq.mshrMissLatency::total     34289000                       # number of WriteReq MSHR miss ticks (Tick)
system.cpu.dcache.WriteReq.mshrMissRate::cpu.data     0.004726                       # mshr miss rate for WriteReq accesses (Ratio)
system.cpu.dcache.WriteReq.mshrMissRate::total     0.004726                       # mshr miss rate for WriteReq accesses (Ratio)
system.cpu.dcache.WriteReq.avgMshrMissLatency::cpu.data 54687.400319                       # average WriteReq mshr miss latency ((Tick/Count))
system.cpu.dcache.WriteReq.avgMshrMissLatency::total 54687.400319                       # average WriteReq mshr miss latency ((Tick/Count))
system.cpu.dcache.power_state.pwrStateResidencyTicks::UNDEFINED  20076925000                       # Cumulative time (in ticks) in various power states (Tick)
system.cpu.dcache.tags.tagsInUse           997.051841                       # Average ticks per tags in use ((Tick/Count))
system.cpu.dcache.tags.totalRefs              2874951                       # Total number of references to valid blocks. (Count)
system.cpu.dcache.tags.sampledRefs              23566                       # Sample count of references to valid blocks. (Count)
system.cpu.dcache.tags.avgRefs             121.995714                       # Average number of references to valid blocks. ((Count/Count))
system.cpu.dcache.tags.warmupTick              150000                       # The tick when the warmup percentage was hit. (Tick)
system.cpu.dcache.tags.occupancies::cpu.data   997.051841                       # Average occupied blocks per tick, per requestor ((Count/Tick))
system.cpu.dcache.tags.avgOccs::cpu.data     0.973683                       # Average percentage of cache occupancy ((Ratio/Tick))
system.cpu.dcache.tags.avgOccs::total        0.973683                       # Average percentage of cache occupancy ((Ratio/Tick))
system.cpu.dcache.tags.occupanciesTaskId::1024         1024                       # Occupied blocks per task id (Count)
system.cpu.dcache.tags.ageTaskId_1024::0           44                       # Occupied blocks per task id, per block age (Count)
system.cpu.dcache.tags.ageTaskId_1024::1          121                       # Occupied blocks per task id, per block age (Count)
system.cpu.dcache.tags.ageTaskId_1024::2           85                       # Occupied blocks per task id, per block age (Count)
system.cpu.dcache.tags.ageTaskId_1024::3          525                       # Occupied blocks per task id, per block age (Count)
system.cpu.dcache.tags.ageTaskId_1024::4          249                       # Occupied blocks per task id, per block age (Count)
system.cpu.dcache.tags.ratioOccsTaskId::1024            1                       # Ratio of occupied blocks and all blocks, per task id (Ratio)
system.cpu.dcache.tags.tagAccesses            5797468                       # Number of tag accesses (Count)
system.cpu.dcache.tags.dataAccesses           5797468                       # Number of data accesses (Count)
system.cpu.dcache.tags.power_state.pwrStateResidencyTicks::UNDEFINED  20076925000                       # Cumulative time (in ticks) in various power states (Tick)
system.cpu.dtb_walker_cache.blockedCycles::no_mshrs            0                       # number of cycles access was blocked (Cycle)
system.cpu.dtb_walker_cache.blockedCycles::no_targets            0                       # number of cycles access was blocked (Cycle)
system.cpu.dtb_walker_cache.blockedCauses::no_mshrs            0                       # number of times access was blocked (Count)
system.cpu.dtb_walker_cache.blockedCauses::no_targets            0                       # number of times access was blocked (Count)
system.cpu.dtb_walker_cache.avgBlocked::no_mshrs          nan                       # average number of cycles each access was blocked ((Cycle/Count))
system.cpu.dtb_walker_cache.avgBlocked::no_targets          nan                       # average number of cycles each access was blocked ((Cycle/Count))
system.cpu.dtb_walker_cache.replacements            0                       # number of replacements (Count)
system.cpu.dtb_walker_cache.power_state.pwrStateResidencyTicks::UNDEFINED  20076925000                       # Cumulative time (in ticks) in various power states (Tick)
system.cpu.dtb_walker_cache.tags.tagsInUse            0                       # Average ticks per tags in use ((Tick/Count))
system.cpu.dtb_walker_cache.tags.totalRefs            0                       # Total number of references to valid blocks. (Count)
system.cpu.dtb_walker_cache.tags.sampledRefs            0                       # Sample count of references to valid blocks. (Count)
system.cpu.dtb_walker_cache.tags.avgRefs          nan                       # Average number of references to valid blocks. ((Count/Count))
system.cpu.dtb_walker_cache.tags.warmupTick            0                       # The tick when the warmup percentage was hit. (Tick)
system.cpu.dtb_walker_cache.tags.tagAccesses            0                       # Number of tag accesses (Count)
system.cpu.dtb_walker_cache.tags.dataAccesses            0                       # Number of data accesses (Count)
system.cpu.dtb_walker_cache.tags.power_state.pwrStateResidencyTicks::UNDEFINED  20076925000                       # Cumulative time (in ticks) in various power states (Tick)
system.cpu.fetch2.intInstructions                  25                       # Number of integer instructions successfully decoded (Count)
system.cpu.fetch2.fpInstructions                    0                       # Number of floating point instructions successfully decoded (Count)
system.cpu.fetch2.vecInstructions                   0                       # Number of SIMD instructions successfully decoded (Count)
system.cpu.fetch2.loadInstructions                  0                       # Number of memory load instructions successfully decoded (Count)
system.cpu.fetch2.storeInstructions                 0                       # Number of memory store instructions successfully decoded (Count)
system.cpu.fetch2.amoInstructions                   0                       # Number of memory atomic instructions successfully decoded (Count)
system.cpu.icache.demandHits::cpu.inst        1608810                       # number of demand (read+write) hits (Count)
system.cpu.icache.demandHits::total           1608810                       # number of demand (read+write) hits (Count)
system.cpu.icache.overallHits::cpu.inst       1608810                       # number of overall hits (Count)
system.cpu.icache.overallHits::total          1608810                       # number of overall hits (Count)
system.cpu.icache.demandMisses::cpu.inst          532                       # number of demand (read+write) misses (Count)
system.cpu.icache.demandMisses::total             532                       # number of demand (read+write) misses (Count)
system.cpu.icache.overallMisses::cpu.inst          532                       # number of overall misses (Count)
system.cpu.icache.overallMisses::total            532                       # number of overall misses (Count)
system.cpu.icache.demandMissLatency::cpu.inst     31173000                       # number of demand (read+write) miss ticks (Tick)
system.cpu.icache.demandMissLatency::total     31173000                       # number of demand (read+write) miss ticks (Tick)
system.cpu.icache.overallMissLatency::cpu.inst     31173000                       # number of overall miss ticks (Tick)
system.cpu.icache.overallMissLatency::total     31173000                       # number of overall miss ticks (Tick)
system.cpu.icache.demandAccesses::cpu.inst      1609342                       # number of demand (read+write) accesses (Count)
system.cpu.icache.demandAccesses::total       1609342                       # number of demand (read+write) accesses (Count)
system.cpu.icache.overallAccesses::cpu.inst      1609342                       # number of overall (read+write) accesses (Count)
system.cpu.icache.overallAccesses::total      1609342                       # number of overall (read+write) accesses (Count)
system.cpu.icache.demandMissRate::cpu.inst     0.000331                       # miss rate for demand accesses (Ratio)
system.cpu.icache.demandMissRate::total      0.000331                       # miss rate for demand accesses (Ratio)
system.cpu.icache.overallMissRate::cpu.inst     0.000331                       # miss rate for overall accesses (Ratio)
system.cpu.icache.overallMissRate::total     0.000331                       # miss rate for overall accesses (Ratio)
system.cpu.icache.demandAvgMissLatency::cpu.inst 58595.864662                       # average overall miss latency ((Cycle/Count))
system.cpu.icache.demandAvgMissLatency::total 58595.864662                       # average overall miss latency ((Cycle/Count))
system.cpu.icache.overallAvgMissLatency::cpu.inst 58595.864662                       # average overall miss latency ((Cycle/Count))
system.cpu.icache.overallAvgMissLatency::total 58595.864662                       # average overall miss latency ((Cycle/Count))
system.cpu.icache.blockedCycles::no_mshrs            0                       # number of cycles access was blocked (Cycle)
system.cpu.icache.blockedCycles::no_targets            0                       # number of cycles access was blocked (Cycle)
system.cpu.icache.blockedCauses::no_mshrs            0                       # number of times access was blocked (Count)
system.cpu.icache.blockedCauses::no_targets            0                       # number of times access was blocked (Count)
system.cpu.icache.avgBlocked::no_mshrs            nan                       # average number of cycles each access was blocked ((Cycle/Count))
system.cpu.icache.avgBlocked::no_targets          nan                       # average number of cycles each access was blocked ((Cycle/Count))
system.cpu.icache.writebacks::writebacks           38                       # number of writebacks (Count)
system.cpu.icache.writebacks::total                38                       # number of writebacks (Count)
system.cpu.icache.demandMshrMisses::cpu.inst          532                       # number of demand (read+write) MSHR misses (Count)
system.cpu.icache.demandMshrMisses::total          532                       # number of demand (read+write) MSHR misses (Count)
system.cpu.icache.overallMshrMisses::cpu.inst          532                       # number of overall MSHR misses (Count)
system.cpu.icache.overallMshrMisses::total          532                       # number of overall MSHR misses (Count)
system.cpu.icache.demandMshrMissLatency::cpu.inst     30111000                       # number of demand (read+write) MSHR miss ticks (Tick)
system.cpu.icache.demandMshrMissLatency::total     30111000                       # number of demand (read+write) MSHR miss ticks (Tick)
system.cpu.icache.overallMshrMissLatency::cpu.inst     30111000                       # number of overall MSHR miss ticks (Tick)
system.cpu.icache.overallMshrMissLatency::total     30111000                       # number of overall MSHR miss ticks (Tick)
system.cpu.icache.demandMshrMissRate::cpu.inst     0.000331                       # mshr miss ratio for demand accesses (Ratio)
system.cpu.icache.demandMshrMissRate::total     0.000331                       # mshr miss ratio for demand accesses (Ratio)
system.cpu.icache.overallMshrMissRate::cpu.inst     0.000331                       # mshr miss ratio for overall accesses (Ratio)
system.cpu.icache.overallMshrMissRate::total     0.000331                       # mshr miss ratio for overall accesses (Ratio)
system.cpu.icache.demandAvgMshrMissLatency::cpu.inst 56599.624060                       # average overall mshr miss latency ((Cycle/Count))
system.cpu.icache.demandAvgMshrMissLatency::total 56599.624060                       # average overall mshr miss latency ((Cycle/Count))
system.cpu.icache.overallAvgMshrMissLatency::cpu.inst 56599.624060                       # average overall mshr miss latency ((Cycle/Count))
system.cpu.icache.overallAvgMshrMissLatency::total 56599.624060                       # average overall mshr miss latency ((Cycle/Count))
system.cpu.icache.replacements                     38                       # number of replacements (Count)
system.cpu.icache.ReadReq.hits::cpu.inst      1608810                       # number of ReadReq hits (Count)
system.cpu.icache.ReadReq.hits::total         1608810                       # number of ReadReq hits (Count)
system.cpu.icache.ReadReq.misses::cpu.inst          532                       # number of ReadReq misses (Count)
system.cpu.icache.ReadReq.misses::total           532                       # number of ReadReq misses (Count)
system.cpu.icache.ReadReq.missLatency::cpu.inst     31173000                       # number of ReadReq miss ticks (Tick)
system.cpu.icache.ReadReq.missLatency::total     31173000                       # number of ReadReq miss ticks (Tick)
system.cpu.icache.ReadReq.accesses::cpu.inst      1609342                       # number of ReadReq accesses(hits+misses) (Count)
system.cpu.icache.ReadReq.accesses::total      1609342                       # number of ReadReq accesses(hits+misses) (Count)
system.cpu.icache.ReadReq.missRate::cpu.inst     0.000331                       # miss rate for ReadReq accesses (Ratio)
system.cpu.icache.ReadReq.missRate::total     0.000331                       # miss rate for ReadReq accesses (Ratio)
system.cpu.icache.ReadReq.avgMissLatency::cpu.inst 58595.864662                       # average ReadReq miss latency ((Tick/Count))
system.cpu.icache.ReadReq.avgMissLatency::total 58595.864662                       # average ReadReq miss latency ((Tick/Count))
system.cpu.icache.ReadReq.mshrMisses::cpu.inst          532                       # number of ReadReq MSHR misses (Count)
system.cpu.icache.ReadReq.mshrMisses::total          532                       # number of ReadReq MSHR misses (Count)
system.cpu.icache.ReadReq.mshrMissLatency::cpu.inst     30111000                       # number of ReadReq MSHR miss ticks (Tick)
system.cpu.icache.ReadReq.mshrMissLatency::total     30111000                       # number of ReadReq MSHR miss ticks (Tick)
system.cpu.icache.ReadReq.mshrMissRate::cpu.inst     0.000331                       # mshr miss rate for ReadReq accesses (Ratio)
system.cpu.icache.ReadReq.mshrMissRate::total     0.000331                       # mshr miss rate for ReadReq accesses (Ratio)
system.cpu.icache.ReadReq.avgMshrMissLatency::cpu.inst 56599.624060                       # average ReadReq mshr miss latency ((Tick/Count))
system.cpu.icache.ReadReq.avgMshrMissLatency::total 56599.624060                       # average ReadReq mshr miss latency ((Tick/Count))
system.cpu.icache.power_state.pwrStateResidencyTicks::UNDEFINED  20076925000                       # Cumulative time (in ticks) in various power states (Tick)
system.cpu.icache.tags.tagsInUse           456.429159                       # Average ticks per tags in use ((Tick/Count))
system.cpu.icache.tags.totalRefs              1609341                       # Total number of references to valid blocks. (Count)
system.cpu.icache.tags.sampledRefs                531                       # Sample count of references to valid blocks. (Count)
system.cpu.icache.tags.avgRefs            3030.774011                       # Average number of references to valid blocks. ((Count/Count))
system.cpu.icache.tags.warmupTick               77000                       # The tick when the warmup percentage was hit. (Tick)
system.cpu.icache.tags.occupancies::cpu.inst   456.429159                       # Average occupied blocks per tick, per requestor ((Count/Tick))
system.cpu.icache.tags.avgOccs::cpu.inst     0.445732                       # Average percentage of cache occupancy ((Ratio/Tick))
system.cpu.icache.tags.avgOccs::total        0.445732                       # Average percentage of cache occupancy ((Ratio/Tick))
system.cpu.icache.tags.occupanciesTaskId::1024          493                       # Occupied blocks per task id (Count)
system.cpu.icache.tags.ageTaskId_1024::0           45                       # Occupied blocks per task id, per block age (Count)
system.cpu.icache.tags.ageTaskId_1024::4          448                       # Occupied blocks per task id, per block age (Count)
system.cpu.icache.tags.ratioOccsTaskId::1024     0.481445                       # Ratio of occupied blocks and all blocks, per task id (Ratio)
system.cpu.icache.tags.tagAccesses            3219215                       # Number of tag accesses (Count)
system.cpu.icache.tags.dataAccesses           3219215                       # Number of data accesses (Count)
system.cpu.icache.tags.power_state.pwrStateResidencyTicks::UNDEFINED  20076925000                       # Cumulative time (in ticks) in various power states (Tick)
system.cpu.interrupts.clk_domain.clock          16000                       # Clock period in ticks (Tick)
system.cpu.itb_walker_cache.blockedCycles::no_mshrs            0                       # number of cycles access was blocked (Cycle)
system.cpu.itb_walker_cache.blockedCycles::no_targets            0                       # number of cycles access was blocked (Cycle)
system.cpu.itb_walker_cache.blockedCauses::no_mshrs            0                       # number of times access was blocked (Count)
system.cpu.itb_walker_cache.blockedCauses::no_targets            0                       # number of times access was blocked (Count)
system.cpu.itb_walker_cache.avgBlocked::no_mshrs          nan                       # average number of cycles each access was blocked ((Cycle/Count))
system.cpu.itb_walker_cache.avgBlocked::no_targets          nan                       # average number of cycles each access was blocked ((Cycle/Count))
system.cpu.itb_walker_cache.replacements            0                       # number of replacements (Count)
system.cpu.itb_walker_cache.power_state.pwrStateResidencyTicks::UNDEFINED  20076925000                       # Cumulative time (in ticks) in various power states (Tick)
system.cpu.itb_walker_cache.tags.tagsInUse            0                       # Average ticks per tags in use ((Tick/Count))
system.cpu.itb_walker_cache.tags.totalRefs            0                       # Total number of references to valid blocks. (Count)
system.cpu.itb_walker_cache.tags.sampledRefs            0                       # Sample count of references to valid blocks. (Count)
system.cpu.itb_walker_cache.tags.avgRefs          nan                       # Average number of references to valid blocks. ((Count/Count))
system.cpu.itb_walker_cache.tags.warmupTick            0                       # The tick when the warmup percentage was hit. (Tick)
system.cpu.itb_walker_cache.tags.tagAccesses            0                       # Number of tag accesses (Count)
system.cpu.itb_walker_cache.tags.dataAccesses            0                       # Number of data accesses (Count)
system.cpu.itb_walker_cache.tags.power_state.pwrStateResidencyTicks::UNDEFINED  20076925000                       # Cumulative time (in ticks) in various power states (Tick)
system.cpu.mmu.dtb.rdAccesses                 2754423                       # TLB accesses on read requests (Count)
system.cpu.mmu.dtb.wrAccesses                  132755                       # TLB accesses on write requests (Count)
system.cpu.mmu.dtb.rdMisses                       131                       # TLB misses on read requests (Count)
system.cpu.mmu.dtb.wrMisses                        30                       # TLB misses on write requests (Count)
system.cpu.mmu.dtb.walker.power_state.pwrStateResidencyTicks::UNDEFINED  20076925000                       # Cumulative time (in ticks) in various power states (Tick)
system.cpu.mmu.itb.rdAccesses                       0                       # TLB accesses on read requests (Count)
system.cpu.mmu.itb.wrAccesses                 1609342                       # TLB accesses on write requests (Count)
system.cpu.mmu.itb.rdMisses                         0                       # TLB misses on read requests (Count)
system.cpu.mmu.itb.wrMisses                        38                       # TLB misses on write requests (Count)
system.cpu.mmu.itb.walker.power_state.pwrStateResidencyTicks::UNDEFINED  20076925000                       # Cumulative time (in ticks) in various power states (Tick)
system.cpu.power_state.pwrStateResidencyTicks::ON  20076925000                       # Cumulative time (in ticks) in various power states (Tick)
system.cpu.thread_0.numInsts                  8104179                       # Number of Instructions committed (Count)
system.cpu.thread_0.numOps                   14470638                       # Number of Ops committed (Count)
system.cpu.thread_0.numMemRefs                      0                       # Number of Memory References (Count)
system.cpu.workload.numSyscalls                    10                       # Number of system calls (Count)
system.cpu_clk_domain.clock                      1000                       # Clock period in ticks (Tick)
system.cpu_voltage_domain.voltage                   1                       # Voltage in Volts (Volt)
system.mem_ctrls.avgPriority_writebacks::samples      9918.00                       # Average QoS priority value for accepted requests (Count)
system.mem_ctrls.avgPriority_cpu.inst::samples       527.00                       # Average QoS priority value for accepted requests (Count)
system.mem_ctrls.avgPriority_cpu.data::samples     17829.00                       # Average QoS priority value for accepted requests (Count)
system.mem_ctrls.priorityMinLatency      0.000000018750                       # per QoS priority minimum request to response latency (Second)
system.mem_ctrls.priorityMaxLatency      0.000562472500                       # per QoS priority maximum request to response latency (Second)
system.mem_ctrls.numReadWriteTurnArounds          565                       # Number of turnarounds from READ to WRITE (Count)
system.mem_ctrls.numWriteReadTurnArounds          565                       # Number of turnarounds from WRITE to READ (Count)
system.mem_ctrls.numStayReadState               53674                       # Number of times bus staying in READ state (Count)
system.mem_ctrls.numStayWriteState               9334                       # Number of times bus staying in WRITE state (Count)
system.mem_ctrls.readReqs                       24098                       # Number of read requests accepted (Count)
system.mem_ctrls.writeReqs                      12005                       # Number of write requests accepted (Count)
system.mem_ctrls.readBursts                     24098                       # Number of controller read bursts, including those serviced by the write queue (Count)
system.mem_ctrls.writeBursts                    12005                       # Number of controller write bursts, including those merged in the write queue (Count)
system.mem_ctrls.servicedByWrQ                   5742                       # Number of controller read bursts serviced by the write queue (Count)
system.mem_ctrls.mergedWrBursts                  2087                       # Number of controller write bursts merged with an existing one (Count)
system.mem_ctrls.neitherReadNorWriteReqs            0                       # Number of requests that are neither read nor write (Count)
system.mem_ctrls.avgRdQLen                       1.00                       # Average read queue length when enqueuing ((Count/Tick))
system.mem_ctrls.avgWrQLen                      25.12                       # Average write queue length when enqueuing ((Count/Tick))
system.mem_ctrls.numRdRetry                         0                       # Number of times read queue was full causing retry (Count)
system.mem_ctrls.numWrRetry                         0                       # Number of times write queue was full causing retry (Count)
system.mem_ctrls.readPktSize::0                     0                       # Read request sizes (log2) (Count)
system.mem_ctrls.readPktSize::1                     0                       # Read request sizes (log2) (Count)
system.mem_ctrls.readPktSize::2                     0                       # Read request sizes (log2) (Count)
system.mem_ctrls.readPktSize::3                     0                       # Read request sizes (log2) (Count)
system.mem_ctrls.readPktSize::4                     0                       # Read request sizes (log2) (Count)
system.mem_ctrls.readPktSize::5                     0                       # Read request sizes (log2) (Count)
system.mem_ctrls.readPktSize::6                 24098                       # Read request sizes (log2) (Count)
system.mem_ctrls.writePktSize::0                    0                       # Write request sizes (log2) (Count)
system.mem_ctrls.writePktSize::1                    0                       # Write request sizes (log2) (Count)
system.mem_ctrls.writePktSize::2                    0                       # Write request sizes (log2) (Count)
system.mem_ctrls.writePktSize::3                    0                       # Write request sizes (log2) (Count)
system.mem_ctrls.writePktSize::4                    0                       # Write request sizes (log2) (Count)
system.mem_ctrls.writePktSize::5                    0                       # Write request sizes (log2) (Count)
system.mem_ctrls.writePktSize::6                12005                       # Write request sizes (log2) (Count)
system.mem_ctrls.rdQLenPdf::0                   18142                       # What read queue length does an incoming req see (Count)
system.mem_ctrls.rdQLenPdf::1                     205                       # What read queue length does an incoming req see (Count)
system.mem_ctrls.rdQLenPdf::2                       9                       # What read queue length does an incoming req see (Count)
system.mem_ctrls.rdQLenPdf::3                       0                       # What read queue length does an incoming req see (Count)
system.mem_ctrls.rdQLenPdf::4                       0                       # What read queue length does an incoming req see (Count)
system.mem_ctrls.rdQLenPdf::5                       0                       # What read queue length does an incoming req see (Count)
system.mem_ctrls.rdQLenPdf::6                       0                       # What read queue length does an incoming req see (Count)
system.mem_ctrls.rdQLenPdf::7                       0                       # What read queue length does an incoming req see (Count)
system.mem_ctrls.rdQLenPdf::8                       0                       # What read queue length does an incoming req see (Count)
system.mem_ctrls.rdQLenPdf::9                       0                       # What read queue length does an incoming req see (Count)
system.mem_ctrls.rdQLenPdf::10                      0                       # What read queue length does an incoming req see (Count)
system.mem_ctrls.rdQLenPdf::11                      0                       # What read queue length does an incoming req see (Count)
system.mem_ctrls.rdQLenPdf::12                      0                       # What read queue length does an incoming req see (Count)
system.mem_ctrls.rdQLenPdf::13                      0                       # What read queue length does an incoming req see (Count)
system.mem_ctrls.rdQLenPdf::14                      0                       # What read queue length does an incoming req see (Count)
system.mem_ctrls.rdQLenPdf::15                      0                       # What read queue length does an incoming req see (Count)
system.mem_ctrls.rdQLenPdf::16                      0                       # What read queue length does an incoming req see (Count)
system.mem_ctrls.rdQLenPdf::17                      0                       # What read queue length does an incoming req see (Count)
system.mem_ctrls.rdQLenPdf::18                      0                       # What read queue length does an incoming req see (Count)
system.mem_ctrls.rdQLenPdf::19                      0                       # What read queue length does an incoming req see (Count)
system.mem_ctrls.rdQLenPdf::20                      0                       # What read queue length does an incoming req see (Count)
system.mem_ctrls.rdQLenPdf::21                      0                       # What read queue length does an incoming req see (Count)
system.mem_ctrls.rdQLenPdf::22                      0                       # What read queue length does an incoming req see (Count)
system.mem_ctrls.rdQLenPdf::23                      0                       # What read queue length does an incoming req see (Count)
system.mem_ctrls.rdQLenPdf::24                      0                       # What read queue length does an incoming req see (Count)
system.mem_ctrls.rdQLenPdf::25                      0                       # What read queue length does an incoming req see (Count)
system.mem_ctrls.rdQLenPdf::26                      0                       # What read queue length does an incoming req see (Count)
system.mem_ctrls.rdQLenPdf::27                      0                       # What read queue length does an incoming req see (Count)
system.mem_ctrls.rdQLenPdf::28                      0                       # What read queue length does an incoming req see (Count)
system.mem_ctrls.rdQLenPdf::29                      0                       # What read queue length does an incoming req see (Count)
system.mem_ctrls.rdQLenPdf::30                      0                       # What read queue length does an incoming req see (Count)
system.mem_ctrls.rdQLenPdf::31                      0                       # What read queue length does an incoming req see (Count)
system.mem_ctrls.wrQLenPdf::0                       1                       # What write queue length does an incoming req see (Count)
system.mem_ctrls.wrQLenPdf::1                       1                       # What write queue length does an incoming req see (Count)
system.mem_ctrls.wrQLenPdf::2                       1                       # What write queue length does an incoming req see (Count)
system.mem_ctrls.wrQLenPdf::3                       1                       # What write queue length does an incoming req see (Count)
system.mem_ctrls.wrQLenPdf::4                       1                       # What write queue length does an incoming req see (Count)
system.mem_ctrls.wrQLenPdf::5                       1                       # What write queue length does an incoming req see (Count)
system.mem_ctrls.wrQLenPdf::6                       1                       # What write queue length does an incoming req see (Count)
system.mem_ctrls.wrQLenPdf::7                       1                       # What write queue length does an incoming req see (Count)
system.mem_ctrls.wrQLenPdf::8                       1                       # What write queue length does an incoming req see (Count)
system.mem_ctrls.wrQLenPdf::9                       1                       # What write queue length does an incoming req see (Count)
system.mem_ctrls.wrQLenPdf::10                      1                       # What write queue length does an incoming req see (Count)
system.mem_ctrls.wrQLenPdf::11                      1                       # What write queue length does an incoming req see (Count)
system.mem_ctrls.wrQLenPdf::12                      1                       # What write queue length does an incoming req see (Count)
system.mem_ctrls.wrQLenPdf::13                      1                       # What write queue length does an incoming req see (Count)
system.mem_ctrls.wrQLenPdf::14                      1                       # What write queue length does an incoming req see (Count)
system.mem_ctrls.wrQLenPdf::15                    407                       # What write queue length does an incoming req see (Count)
system.mem_ctrls.wrQLenPdf::16                    438                       # What write queue length does an incoming req see (Count)
system.mem_ctrls.wrQLenPdf::17                    564                       # What write queue length does an incoming req see (Count)
system.mem_ctrls.wrQLenPdf::18                    568                       # What write queue length does an incoming req see (Count)
system.mem_ctrls.wrQLenPdf::19                    567                       # What write queue length does an incoming req see (Count)
system.mem_ctrls.wrQLenPdf::20                    566                       # What write queue length does an incoming req see (Count)
system.mem_ctrls.wrQLenPdf::21                    566                       # What write queue length does an incoming req see (Count)
system.mem_ctrls.wrQLenPdf::22                    566                       # What write queue length does an incoming req see (Count)
system.mem_ctrls.wrQLenPdf::23                    566                       # What write queue length does an incoming req see (Count)
system.mem_ctrls.wrQLenPdf::24                    566                       # What write queue length does an incoming req see (Count)
system.mem_ctrls.wrQLenPdf::25                    566                       # What write queue length does an incoming req see (Count)
system.mem_ctrls.wrQLenPdf::26                    566                       # What write queue length does an incoming req see (Count)
system.mem_ctrls.wrQLenPdf::27                    566                       # What write queue length does an incoming req see (Count)
system.mem_ctrls.wrQLenPdf::28                    566                       # What write queue length does an incoming req see (Count)
system.mem_ctrls.wrQLenPdf::29                    569                       # What write queue length does an incoming req see (Count)
system.mem_ctrls.wrQLenPdf::30                    566                       # What write queue length does an incoming req see (Count)
system.mem_ctrls.wrQLenPdf::31                    565                       # What write queue length does an incoming req see (Count)
system.mem_ctrls.wrQLenPdf::32                    565                       # What write queue length does an incoming req see (Count)
system.mem_ctrls.wrQLenPdf::33                      0                       # What write queue length does an incoming req see (Count)
system.mem_ctrls.wrQLenPdf::34                      0                       # What write queue length does an incoming req see (Count)
system.mem_ctrls.wrQLenPdf::35                      0                       # What write queue length does an incoming req see (Count)
system.mem_ctrls.wrQLenPdf::36                      0                       # What write queue length does an incoming req see (Count)
system.mem_ctrls.wrQLenPdf::37                      0                       # What write queue length does an incoming req see (Count)
system.mem_ctrls.wrQLenPdf::38                      0                       # What write queue length does an incoming req see (Count)
system.mem_ctrls.wrQLenPdf::39                      0                       # What write queue length does an incoming req see (Count)
system.mem_ctrls.wrQLenPdf::40                      0                       # What write queue length does an incoming req see (Count)
system.mem_ctrls.wrQLenPdf::41                      0                       # What write queue length does an incoming req see (Count)
system.mem_ctrls.wrQLenPdf::42                      0                       # What write queue length does an incoming req see (Count)
system.mem_ctrls.wrQLenPdf::43                      0                       # What write queue length does an incoming req see (Count)
system.mem_ctrls.wrQLenPdf::44                      0                       # What write queue length does an incoming req see (Count)
system.mem_ctrls.wrQLenPdf::45                      0                       # What write queue length does an incoming req see (Count)
system.mem_ctrls.wrQLenPdf::46                      0                       # What write queue length does an incoming req see (Count)
system.mem_ctrls.wrQLenPdf::47                      0                       # What write queue length does an incoming req see (Count)
system.mem_ctrls.wrQLenPdf::48                      0                       # What write queue length does an incoming req see (Count)
system.mem_ctrls.wrQLenPdf::49                      0                       # What write queue length does an incoming req see (Count)
system.mem_ctrls.wrQLenPdf::50                      0                       # What write queue length does an incoming req see (Count)
system.mem_ctrls.wrQLenPdf::51                      0                       # What write queue length does an incoming req see (Count)
system.mem_ctrls.wrQLenPdf::52                      0                       # What write queue length does an incoming req see (Count)
system.mem_ctrls.wrQLenPdf::53                      0                       # What write queue length does an incoming req see (Count)
system.mem_ctrls.wrQLenPdf::54                      0                       # What write queue length does an incoming req see (Count)
system.mem_ctrls.wrQLenPdf::55                      0                       # What write queue length does an incoming req see (Count)
system.mem_ctrls.wrQLenPdf::56                      0                       # What write queue length does an incoming req see (Count)
system.mem_ctrls.wrQLenPdf::57                      0                       # What write queue length does an incoming req see (Count)
system.mem_ctrls.wrQLenPdf::58                      0                       # What write queue length does an incoming req see (Count)
system.mem_ctrls.wrQLenPdf::59                      0                       # What write queue length does an incoming req see (Count)
system.mem_ctrls.wrQLenPdf::60                      0                       # What write queue length does an incoming req see (Count)
system.mem_ctrls.wrQLenPdf::61                      0                       # What write queue length does an incoming req see (Count)
system.mem_ctrls.wrQLenPdf::62                      0                       # What write queue length does an incoming req see (Count)
system.mem_ctrls.wrQLenPdf::63                      0                       # What write queue length does an incoming req see (Count)
system.mem_ctrls.rdPerTurnAround::samples          565                       # Reads before turning the bus around for writes (Count)
system.mem_ctrls.rdPerTurnAround::mean      32.299115                       # Reads before turning the bus around for writes (Count)
system.mem_ctrls.rdPerTurnAround::gmean     24.583576                       # Reads before turning the bus around for writes (Count)
system.mem_ctrls.rdPerTurnAround::stdev     39.196325                       # Reads before turning the bus around for writes (Count)
system.mem_ctrls.rdPerTurnAround::0-31            317     56.11%     56.11% # Reads before turning the bus around for writes (Count)
system.mem_ctrls.rdPerTurnAround::32-63           209     36.99%     93.10% # Reads before turning the bus around for writes (Count)
system.mem_ctrls.rdPerTurnAround::64-95            25      4.42%     97.52% # Reads before turning the bus around for writes (Count)
system.mem_ctrls.rdPerTurnAround::96-127           10      1.77%     99.29% # Reads before turning the bus around for writes (Count)
system.mem_ctrls.rdPerTurnAround::128-159            3      0.53%     99.82% # Reads before turning the bus around for writes (Count)
system.mem_ctrls.rdPerTurnAround::800-831            1      0.18%    100.00% # Reads before turning the bus around for writes (Count)
system.mem_ctrls.rdPerTurnAround::total           565                       # Reads before turning the bus around for writes (Count)
system.mem_ctrls.wrPerTurnAround::samples          565                       # Writes before turning the bus around for reads (Count)
system.mem_ctrls.wrPerTurnAround::mean      17.499115                       # Writes before turning the bus around for reads (Count)
system.mem_ctrls.wrPerTurnAround::gmean     17.478061                       # Writes before turning the bus around for reads (Count)
system.mem_ctrls.wrPerTurnAround::stdev      0.843466                       # Writes before turning the bus around for reads (Count)
system.mem_ctrls.wrPerTurnAround::16              127     22.48%     22.48% # Writes before turning the bus around for reads (Count)
system.mem_ctrls.wrPerTurnAround::17               32      5.66%     28.14% # Writes before turning the bus around for reads (Count)
system.mem_ctrls.wrPerTurnAround::18              403     71.33%     99.47% # Writes before turning the bus around for reads (Count)
system.mem_ctrls.wrPerTurnAround::19                3      0.53%    100.00% # Writes before turning the bus around for reads (Count)
system.mem_ctrls.wrPerTurnAround::total           565                       # Writes before turning the bus around for reads (Count)
system.mem_ctrls.bytesReadWrQ                  367488                       # Total number of bytes read from write queue (Byte)
system.mem_ctrls.bytesReadSys                 1542272                       # Total read bytes from the system interface side (Byte)
system.mem_ctrls.bytesWrittenSys               768320                       # Total written bytes from the system interface side (Byte)
system.mem_ctrls.avgRdBWSys              76818138.23581052                       # Average system read bandwidth in Byte/s ((Byte/Second))
system.mem_ctrls.avgWrBWSys              38268808.59494171                       # Average system write bandwidth in Byte/s ((Byte/Second))
system.mem_ctrls.totGap                   20076918000                       # Total gap between requests (Tick)
system.mem_ctrls.avgGap                     556101.10                       # Average gap between requests ((Tick/Count))
system.mem_ctrls.requestorReadBytes::cpu.inst        33728                       # Per-requestor bytes read from memory (Byte)
system.mem_ctrls.requestorReadBytes::cpu.data      1141056                       # Per-requestor bytes read from memory (Byte)
system.mem_ctrls.requestorWriteBytes::writebacks       632768                       # Per-requestor bytes write to memory (Byte)
system.mem_ctrls.requestorReadRate::cpu.inst 1679938.536404354731                       # Per-requestor bytes read from memory rate ((Byte/Second))
system.mem_ctrls.requestorReadRate::cpu.data 56834201.452662698925                       # Per-requestor bytes read from memory rate ((Byte/Second))
system.mem_ctrls.requestorWriteRate::writebacks 31517177.057741664350                       # Per-requestor bytes write to memory rate ((Byte/Second))
system.mem_ctrls.requestorReadAccesses::cpu.inst          532                       # Per-requestor read serviced memory accesses (Count)
system.mem_ctrls.requestorReadAccesses::cpu.data        23566                       # Per-requestor read serviced memory accesses (Count)
system.mem_ctrls.requestorWriteAccesses::writebacks        12005                       # Per-requestor write serviced memory accesses (Count)
system.mem_ctrls.requestorReadTotalLat::cpu.inst     12993500                       # Per-requestor read total memory access latency (Tick)
system.mem_ctrls.requestorReadTotalLat::cpu.data    497157750                       # Per-requestor read total memory access latency (Tick)
system.mem_ctrls.requestorWriteTotalLat::writebacks 493048278500                       # Per-requestor write total memory access latency (Tick)
system.mem_ctrls.requestorReadAvgLat::cpu.inst     24423.87                       # Per-requestor read average memory access latency ((Tick/Count))
system.mem_ctrls.requestorReadAvgLat::cpu.data     21096.40                       # Per-requestor read average memory access latency ((Tick/Count))
system.mem_ctrls.requestorWriteAvgLat::writebacks  41070243.94                       # Per-requestor write average memory access latency ((Tick/Count))
system.mem_ctrls.dram.bytesRead::cpu.inst        33984                       # Number of bytes read from this memory (Byte)
system.mem_ctrls.dram.bytesRead::cpu.data      1508224                       # Number of bytes read from this memory (Byte)
system.mem_ctrls.dram.bytesRead::total        1542208                       # Number of bytes read from this memory (Byte)
system.mem_ctrls.dram.bytesInstRead::cpu.inst        33984                       # Number of instructions bytes read from this memory (Byte)
system.mem_ctrls.dram.bytesInstRead::total        33984                       # Number of instructions bytes read from this memory (Byte)
system.mem_ctrls.dram.bytesWritten::writebacks       765888                       # Number of bytes written to this memory (Byte)
system.mem_ctrls.dram.bytesWritten::total       765888                       # Number of bytes written to this memory (Byte)
system.mem_ctrls.dram.numReads::cpu.inst          531                       # Number of read requests responded to by this memory (Count)
system.mem_ctrls.dram.numReads::cpu.data        23566                       # Number of read requests responded to by this memory (Count)
system.mem_ctrls.dram.numReads::total           24097                       # Number of read requests responded to by this memory (Count)
system.mem_ctrls.dram.numWrites::writebacks        11967                       # Number of write requests responded to by this memory (Count)
system.mem_ctrls.dram.numWrites::total          11967                       # Number of write requests responded to by this memory (Count)
system.mem_ctrls.dram.bwRead::cpu.inst        1692689                       # Total read bandwidth from this memory ((Byte/Second))
system.mem_ctrls.dram.bwRead::cpu.data       75122261                       # Total read bandwidth from this memory ((Byte/Second))
system.mem_ctrls.dram.bwRead::total          76814950                       # Total read bandwidth from this memory ((Byte/Second))
system.mem_ctrls.dram.bwInstRead::cpu.inst      1692689                       # Instruction read bandwidth from this memory ((Byte/Second))
system.mem_ctrls.dram.bwInstRead::total       1692689                       # Instruction read bandwidth from this memory ((Byte/Second))
system.mem_ctrls.dram.bwWrite::writebacks     38147675                       # Write bandwidth from this memory ((Byte/Second))
system.mem_ctrls.dram.bwWrite::total         38147675                       # Write bandwidth from this memory ((Byte/Second))
system.mem_ctrls.dram.bwTotal::writebacks     38147675                       # Total bandwidth to/from this memory ((Byte/Second))
system.mem_ctrls.dram.bwTotal::cpu.inst       1692689                       # Total bandwidth to/from this memory ((Byte/Second))
system.mem_ctrls.dram.bwTotal::cpu.data      75122261                       # Total bandwidth to/from this memory ((Byte/Second))
system.mem_ctrls.dram.bwTotal::total        114962625                       # Total bandwidth to/from this memory ((Byte/Second))
system.mem_ctrls.dram.readBursts                18356                       # Number of DRAM read bursts (Count)
system.mem_ctrls.dram.writeBursts                9887                       # Number of DRAM write bursts (Count)
system.mem_ctrls.dram.perBankRdBursts::0          913                       # Per bank write bursts (Count)
system.mem_ctrls.dram.perBankRdBursts::1         1403                       # Per bank write bursts (Count)
system.mem_ctrls.dram.perBankRdBursts::2         1384                       # Per bank write bursts (Count)
system.mem_ctrls.dram.perBankRdBursts::3         1363                       # Per bank write bursts (Count)
system.mem_ctrls.dram.perBankRdBursts::4         1347                       # Per bank write bursts (Count)
system.mem_ctrls.dram.perBankRdBursts::5         1400                       # Per bank write bursts (Count)
system.mem_ctrls.dram.perBankRdBursts::6         1443                       # Per bank write bursts (Count)
system.mem_ctrls.dram.perBankRdBursts::7         1392                       # Per bank write bursts (Count)
system.mem_ctrls.dram.perBankRdBursts::8         1362                       # Per bank write bursts (Count)
system.mem_ctrls.dram.perBankRdBursts::9          937                       # Per bank write bursts (Count)
system.mem_ctrls.dram.perBankRdBursts::10          893                       # Per bank write bursts (Count)
system.mem_ctrls.dram.perBankRdBursts::11          941                       # Per bank write bursts (Count)
system.mem_ctrls.dram.perBankRdBursts::12          833                       # Per bank write bursts (Count)
system.mem_ctrls.dram.perBankRdBursts::13          879                       # Per bank write bursts (Count)
system.mem_ctrls.dram.perBankRdBursts::14          884                       # Per bank write bursts (Count)
system.mem_ctrls.dram.perBankRdBursts::15          982                       # Per bank write bursts (Count)
system.mem_ctrls.dram.perBankWrBursts::0         1200                       # Per bank write bursts (Count)
system.mem_ctrls.dram.perBankWrBursts::1          109                       # Per bank write bursts (Count)
system.mem_ctrls.dram.perBankWrBursts::2            4                       # Per bank write bursts (Count)
system.mem_ctrls.dram.perBankWrBursts::3            0                       # Per bank write bursts (Count)
system.mem_ctrls.dram.perBankWrBursts::4            0                       # Per bank write bursts (Count)
system.mem_ctrls.dram.perBankWrBursts::5            0                       # Per bank write bursts (Count)
system.mem_ctrls.dram.perBankWrBursts::6            9                       # Per bank write bursts (Count)
system.mem_ctrls.dram.perBankWrBursts::7            1                       # Per bank write bursts (Count)
system.mem_ctrls.dram.perBankWrBursts::8            0                       # Per bank write bursts (Count)
system.mem_ctrls.dram.perBankWrBursts::9         1129                       # Per bank write bursts (Count)
system.mem_ctrls.dram.perBankWrBursts::10         1260                       # Per bank write bursts (Count)
system.mem_ctrls.dram.perBankWrBursts::11         1272                       # Per bank write bursts (Count)
system.mem_ctrls.dram.perBankWrBursts::12         1183                       # Per bank write bursts (Count)
system.mem_ctrls.dram.perBankWrBursts::13         1203                       # Per bank write bursts (Count)
system.mem_ctrls.dram.perBankWrBursts::14         1260                       # Per bank write bursts (Count)
system.mem_ctrls.dram.perBankWrBursts::15         1257                       # Per bank write bursts (Count)
system.mem_ctrls.dram.totQLat               165976250                       # Total ticks spent queuing (Tick)
system.mem_ctrls.dram.totBusLat              91780000                       # Total ticks spent in databus transfers (Tick)
system.mem_ctrls.dram.totMemAccLat          510151250                       # Total ticks spent from burst creation until serviced by the DRAM (Tick)
system.mem_ctrls.dram.avgQLat                 9042.07                       # Average queueing delay per DRAM burst ((Tick/Count))
system.mem_ctrls.dram.avgBusLat               5000.00                       # Average bus latency per DRAM burst ((Tick/Count))
system.mem_ctrls.dram.avgMemAccLat           27792.07                       # Average memory access latency per DRAM burst ((Tick/Count))
system.mem_ctrls.dram.readRowHits               15162                       # Number of row buffer hits during reads (Count)
system.mem_ctrls.dram.writeRowHits               8561                       # Number of row buffer hits during writes (Count)
system.mem_ctrls.dram.readRowHitRate            82.60                       # Row buffer hit rate for reads (Ratio)
system.mem_ctrls.dram.writeRowHitRate           86.59                       # Row buffer hit rate for writes (Ratio)
system.mem_ctrls.dram.bytesPerActivate::samples         4510                       # Bytes accessed per row activation (Byte)
system.mem_ctrls.dram.bytesPerActivate::mean   400.276718                       # Bytes accessed per row activation (Byte)
system.mem_ctrls.dram.bytesPerActivate::gmean   285.418661                       # Bytes accessed per row activation (Byte)
system.mem_ctrls.dram.bytesPerActivate::stdev   285.716846                       # Bytes accessed per row activation (Byte)
system.mem_ctrls.dram.bytesPerActivate::0-127          742     16.45%     16.45% # Bytes accessed per row activation (Byte)
system.mem_ctrls.dram.bytesPerActivate::128-255          971     21.53%     37.98% # Bytes accessed per row activation (Byte)
system.mem_ctrls.dram.bytesPerActivate::256-383          480     10.64%     48.63% # Bytes accessed per row activation (Byte)
system.mem_ctrls.dram.bytesPerActivate::384-511          652     14.46%     63.08% # Bytes accessed per row activation (Byte)
system.mem_ctrls.dram.bytesPerActivate::512-639          471     10.44%     73.53% # Bytes accessed per row activation (Byte)
system.mem_ctrls.dram.bytesPerActivate::640-767          485     10.75%     84.28% # Bytes accessed per row activation (Byte)
system.mem_ctrls.dram.bytesPerActivate::768-895          358      7.94%     92.22% # Bytes accessed per row activation (Byte)
system.mem_ctrls.dram.bytesPerActivate::896-1023          173      3.84%     96.05% # Bytes accessed per row activation (Byte)
system.mem_ctrls.dram.bytesPerActivate::1024-1151          178      3.95%    100.00% # Bytes accessed per row activation (Byte)
system.mem_ctrls.dram.bytesPerActivate::total         4510                       # Bytes accessed per row activation (Byte)
system.mem_ctrls.dram.bytesRead               1174784                       # Total bytes read (Byte)
system.mem_ctrls.dram.bytesWritten             632768                       # Total bytes written (Byte)
system.mem_ctrls.dram.avgRdBW               58.514140                       # Average DRAM read bandwidth in MiBytes/s ((Byte/Second))
system.mem_ctrls.dram.avgWrBW               31.517177                       # Average DRAM write bandwidth in MiBytes/s ((Byte/Second))
system.mem_ctrls.dram.peakBW                 12800.00                       # Theoretical peak bandwidth in MiByte/s ((Byte/Second))
system.mem_ctrls.dram.busUtil                    0.70                       # Data bus utilization in percentage (Ratio)
system.mem_ctrls.dram.busUtilRead                0.46                       # Data bus utilization in percentage for reads (Ratio)
system.mem_ctrls.dram.busUtilWrite               0.25                       # Data bus utilization in percentage for writes (Ratio)
system.mem_ctrls.dram.pageHitRate               84.00                       # Row buffer hit rate, read and write combined (Ratio)
system.mem_ctrls.dram.power_state.pwrStateResidencyTicks::UNDEFINED  20076925000                       # Cumulative time (in ticks) in various power states (Tick)
system.mem_ctrls.dram.rank0.actEnergy        14929740                       # Energy for activate commands per rank (pJ) (Joule)
system.mem_ctrls.dram.rank0.preEnergy         7920165                       # Energy for precharge commands per rank (pJ) (Joule)
system.mem_ctrls.dram.rank0.readEnergy       76005300                       # Energy for read commands per rank (pJ) (Joule)
system.mem_ctrls.dram.rank0.writeEnergy       6906060                       # Energy for write commands per rank (pJ) (Joule)
system.mem_ctrls.dram.rank0.refreshEnergy 1584541920.000000                       # Energy for refresh commands per rank (pJ) (Joule)
system.mem_ctrls.dram.rank0.actBackEnergy   2855082690                       # Energy for active background per rank (pJ) (Joule)
system.mem_ctrls.dram.rank0.preBackEnergy   5305259040                       # Energy for precharge background per rank (pJ) (Joule)
system.mem_ctrls.dram.rank0.actPowerDownEnergy            0                       # Energy for active power-down per rank (pJ) (Joule)
system.mem_ctrls.dram.rank0.prePowerDownEnergy            0                       # Energy for precharge power-down per rank (pJ) (Joule)
system.mem_ctrls.dram.rank0.selfRefreshEnergy            0                       # Energy for self refresh per rank (pJ) (Joule)
system.mem_ctrls.dram.rank0.totalEnergy    9850644915                       # Total energy per rank (pJ) (Joule)
system.mem_ctrls.dram.rank0.averagePower   490.645102                       # Core power per rank (mW) (Watt)
system.mem_ctrls.dram.rank0.totalIdleTime            0                       # Total Idle time Per DRAM Rank (Tick)
system.mem_ctrls.dram.rank0.pwrStateTime::IDLE  13764426750                       # Time in different power states (Tick)
system.mem_ctrls.dram.rank0.pwrStateTime::REF    670280000                       # Time in different power states (Tick)
system.mem_ctrls.dram.rank0.pwrStateTime::SREF            0                       # Time in different power states (Tick)
system.mem_ctrls.dram.rank0.pwrStateTime::PRE_PDN            0                       # Time in different power states (Tick)
system.mem_ctrls.dram.rank0.pwrStateTime::ACT   5642218250                       # Time in different power states (Tick)
system.mem_ctrls.dram.rank0.pwrStateTime::ACT_PDN            0                       # Time in different power states (Tick)
system.mem_ctrls.dram.rank1.actEnergy        17343060                       # Energy for activate commands per rank (pJ) (Joule)
system.mem_ctrls.dram.rank1.preEnergy         9195285                       # Energy for precharge commands per rank (pJ) (Joule)
system.mem_ctrls.dram.rank1.readEnergy       55056540                       # Energy for read commands per rank (pJ) (Joule)
system.mem_ctrls.dram.rank1.writeEnergy      44704080                       # Energy for write commands per rank (pJ) (Joule)
system.mem_ctrls.dram.rank1.refreshEnergy 1584541920.000000                       # Energy for refresh commands per rank (pJ) (Joule)
system.mem_ctrls.dram.rank1.actBackEnergy   3019005570                       # Energy for active background per rank (pJ) (Joule)
system.mem_ctrls.dram.rank1.preBackEnergy   5167218720                       # Energy for precharge background per rank (pJ) (Joule)
system.mem_ctrls.dram.rank1.actPowerDownEnergy            0                       # Energy for active power-down per rank (pJ) (Joule)
system.mem_ctrls.dram.rank1.prePowerDownEnergy            0                       # Energy for precharge power-down per rank (pJ) (Joule)
system.mem_ctrls.dram.rank1.selfRefreshEnergy            0                       # Energy for self refresh per rank (pJ) (Joule)
system.mem_ctrls.dram.rank1.totalEnergy    9897065175                       # Total energy per rank (pJ) (Joule)
system.mem_ctrls.dram.rank1.averagePower   492.957222                       # Core power per rank (mW) (Watt)
system.mem_ctrls.dram.rank1.totalIdleTime            0                       # Total Idle time Per DRAM Rank (Tick)
system.mem_ctrls.dram.rank1.pwrStateTime::IDLE  13405727000                       # Time in different power states (Tick)
system.mem_ctrls.dram.rank1.pwrStateTime::REF    670280000                       # Time in different power states (Tick)
system.mem_ctrls.dram.rank1.pwrStateTime::SREF            0                       # Time in different power states (Tick)
system.mem_ctrls.dram.rank1.pwrStateTime::PRE_PDN            0                       # Time in different power states (Tick)
system.mem_ctrls.dram.rank1.pwrStateTime::ACT   6000918000                       # Time in different power states (Tick)
system.mem_ctrls.dram.rank1.pwrStateTime::ACT_PDN            0                       # Time in different power states (Tick)
system.mem_ctrls.power_state.pwrStateResidencyTicks::UNDEFINED  20076925000                       # Cumulative time (in ticks) in various power states (Tick)
system.membus.transDist::ReadResp               23470                       # Transaction distribution (Count)
system.membus.transDist::WritebackDirty         11967                       # Transaction distribution (Count)
system.membus.transDist::WritebackClean            38                       # Transaction distribution (Count)
system.membus.transDist::CleanEvict             10575                       # Transaction distribution (Count)
system.membus.transDist::ReadExReq                627                       # Transaction distribution (Count)
system.membus.transDist::ReadExResp               627                       # Transaction distribution (Count)
system.membus.transDist::ReadCleanReq             532                       # Transaction distribution (Count)
system.membus.transDist::ReadSharedReq          22939                       # Transaction distribution (Count)
system.membus.pktCount_system.cpu.icache.mem_side_port::system.mem_ctrls.port         1101                       # Packet count per connected requestor and responder (Count)
system.membus.pktCount_system.cpu.icache.mem_side_port::total         1101                       # Packet count per connected requestor and responder (Count)
system.membus.pktCount_system.cpu.dcache.mem_side_port::system.mem_ctrls.port        69674                       # Packet count per connected requestor and responder (Count)
system.membus.pktCount_system.cpu.dcache.mem_side_port::total        69674                       # Packet count per connected requestor and responder (Count)
system.membus.pktCount::total                   70775                       # Packet count per connected requestor and responder (Count)
system.membus.pktSize_system.cpu.icache.mem_side_port::system.mem_ctrls.port        36416                       # Cumulative packet size per connected requestor and responder (Byte)
system.membus.pktSize_system.cpu.icache.mem_side_port::total        36416                       # Cumulative packet size per connected requestor and responder (Byte)
system.membus.pktSize_system.cpu.dcache.mem_side_port::system.mem_ctrls.port      2274112                       # Cumulative packet size per connected requestor and responder (Byte)
system.membus.pktSize_system.cpu.dcache.mem_side_port::total      2274112                       # Cumulative packet size per connected requestor and responder (Byte)
system.membus.pktSize::total                  2310528                       # Cumulative packet size per connected requestor and responder (Byte)
system.membus.snoops                                0                       # Total snoops (Count)
system.membus.snoopTraffic                          0                       # Total snoop traffic (Byte)
system.membus.snoopFanout::samples              24098                       # Request fanout histogram (Count)
system.membus.snoopFanout::mean                     0                       # Request fanout histogram (Count)
system.membus.snoopFanout::stdev                    0                       # Request fanout histogram (Count)
system.membus.snoopFanout::underflows               0      0.00%      0.00% # Request fanout histogram (Count)
system.membus.snoopFanout::0                    24098    100.00%    100.00% # Request fanout histogram (Count)
system.membus.snoopFanout::1                        0      0.00%    100.00% # Request fanout histogram (Count)
system.membus.snoopFanout::2                        0      0.00%    100.00% # Request fanout histogram (Count)
system.membus.snoopFanout::3                        0      0.00%    100.00% # Request fanout histogram (Count)
system.membus.snoopFanout::4                        0      0.00%    100.00% # Request fanout histogram (Count)
system.membus.snoopFanout::overflows                0      0.00%    100.00% # Request fanout histogram (Count)
system.membus.snoopFanout::min_value                0                       # Request fanout histogram (Count)
system.membus.snoopFanout::max_value                0                       # Request fanout histogram (Count)
system.membus.snoopFanout::total                24098                       # Request fanout histogram (Count)
system.membus.power_state.pwrStateResidencyTicks::UNDEFINED  20076925000                       # Cumulative time (in ticks) in various power states (Tick)
system.membus.reqLayer2.occupancy            94698000                       # Layer occupancy (ticks) (Tick)
system.membus.reqLayer2.utilization               0.0                       # Layer utilization (Ratio)
system.membus.respLayer1.occupancy            2824250                       # Layer occupancy (ticks) (Tick)
system.membus.respLayer1.utilization              0.0                       # Layer utilization (Ratio)
system.membus.respLayer2.occupancy          123081000                       # Layer occupancy (ticks) (Tick)
system.membus.respLayer2.utilization              0.0                       # Layer utilization (Ratio)
system.membus.snoop_filter.totRequests          46678                       # Total number of requests made to the snoop filter. (Count)
system.membus.snoop_filter.hitSingleRequests        22580                       # Number of requests hitting in the snoop filter with a single holder of the requested data. (Count)
system.membus.snoop_filter.hitMultiRequests            0                       # Number of requests hitting in the snoop filter with multiple (>1) holders of the requested data. (Count)
system.membus.snoop_filter.totSnoops                0                       # Total number of snoops made to the snoop filter. (Count)
system.membus.snoop_filter.hitSingleSnoops            0                       # Number of snoops hitting in the snoop filter with a single holder of the requested data. (Count)
system.membus.snoop_filter.hitMultiSnoops            0                       # Number of snoops hitting in the snoop filter with multiple (>1) holders of the requested data. (Count)
system.voltage_domain.voltage                       1                       # Voltage in Volts (Volt)
system.workload.inst.arm                            0                       # number of arm instructions executed (Count)
system.workload.inst.quiesce                        0                       # number of quiesce instructions executed (Count)
system.cpu.idleCycles                         1047989                       # Total number of cycles that the object has spent stopped (Unspecified)
system.cpu.tickCycles                        19028936                       # Number of cycles that the object actually ticked (Unspecified)

---------- End Simulation Statistics   ----------
