
---------- Begin Simulation Statistics ----------
simSeconds                                   0.029785                       # Number of seconds simulated (Second)
simTicks                                  29784803000                       # Number of ticks simulated (Tick)
finalTick                                 29784803000                       # Number of ticks from beginning of simulation (restored from checkpoints and never reset) (Tick)
simFreq                                  1000000000000                       # The number of ticks per simulated second ((Tick/Second))
hostSeconds                                     86.32                       # Real time elapsed on the host (Second)
hostTickRate                                345066160                       # The number of ticks simulated per host second (ticks/s) ((Tick/Second))
hostMemory                                     658332                       # Number of bytes of host memory used (Byte)
simInsts                                     11352627                       # Number of instructions simulated (Count)
simOps                                       22631712                       # Number of ops (including micro ops) simulated (Count)
hostInstRate                                   131524                       # Simulator instruction rate (inst/s) ((Count/Second))
hostOpRate                                     262195                       # Simulator op (including micro ops) rate (op/s) ((Count/Second))
system.clk_domain.clock                          1000                       # Clock period in ticks (Tick)
system.cpu.numCycles                         29784804                       # Number of cpu cycles simulated (Cycle)
system.cpu.numWorkItemsStarted                      0                       # Number of work items this cpu started (Count)
system.cpu.numWorkItemsCompleted                    0                       # Number of work items this cpu completed (Count)
system.cpu.instsAdded                        22881537                       # Number of instructions added to the IQ (excludes non-spec) (Count)
system.cpu.instsIssued                       33284910                       # Number of instructions issued (Count)
system.cpu.squashedInstsIssued                  20551                       # Number of squashed instructions issued (Count)
system.cpu.squashedInstsExamined               249819                       # Number of squashed instructions iterated over during squash; mainly for profiling (Count)
system.cpu.squashedOperandsExamined            379887                       # Number of squashed operands that are examined and possibly removed from graph (Count)
system.cpu.numIssuedDist::samples            29775715                       # Number of insts issued each cycle (Count)
system.cpu.numIssuedDist::mean               1.117854                       # Number of insts issued each cycle (Count)
system.cpu.numIssuedDist::stdev              1.870229                       # Number of insts issued each cycle (Count)
system.cpu.numIssuedDist::underflows                0      0.00%      0.00% # Number of insts issued each cycle (Count)
system.cpu.numIssuedDist::0                  19273336     64.73%     64.73% # Number of insts issued each cycle (Count)
system.cpu.numIssuedDist::1                   3070222     10.31%     75.04% # Number of insts issued each cycle (Count)
system.cpu.numIssuedDist::2                   1053029      3.54%     78.58% # Number of insts issued each cycle (Count)
system.cpu.numIssuedDist::3                   1660553      5.58%     84.15% # Number of insts issued each cycle (Count)
system.cpu.numIssuedDist::4                   2243621      7.54%     91.69% # Number of insts issued each cycle (Count)
system.cpu.numIssuedDist::5                   1399287      4.70%     96.39% # Number of insts issued each cycle (Count)
system.cpu.numIssuedDist::6                    572535      1.92%     98.31% # Number of insts issued each cycle (Count)
system.cpu.numIssuedDist::7                    304214      1.02%     99.33% # Number of insts issued each cycle (Count)
system.cpu.numIssuedDist::8                    198918      0.67%    100.00% # Number of insts issued each cycle (Count)
system.cpu.numIssuedDist::overflows                 0      0.00%    100.00% # Number of insts issued each cycle (Count)
system.cpu.numIssuedDist::min_value                 0                       # Number of insts issued each cycle (Count)
system.cpu.numIssuedDist::max_value                 8                       # Number of insts issued each cycle (Count)
system.cpu.numIssuedDist::total              29775715                       # Number of insts issued each cycle (Count)
system.cpu.statFuBusy::No_OpClass                   0      0.00%      0.00% # attempts to use FU when none available (Count)
system.cpu.statFuBusy::IntAlu                   76306      2.00%      2.00% # attempts to use FU when none available (Count)
system.cpu.statFuBusy::IntMult                      0      0.00%      2.00% # attempts to use FU when none available (Count)
system.cpu.statFuBusy::IntDiv                       0      0.00%      2.00% # attempts to use FU when none available (Count)
system.cpu.statFuBusy::FloatAdd                     0      0.00%      2.00% # attempts to use FU when none available (Count)
system.cpu.statFuBusy::FloatCmp                     0      0.00%      2.00% # attempts to use FU when none available (Count)
system.cpu.statFuBusy::FloatCvt                     0      0.00%      2.00% # attempts to use FU when none available (Count)
system.cpu.statFuBusy::FloatMult                    0      0.00%      2.00% # attempts to use FU when none available (Count)
system.cpu.statFuBusy::FloatMultAcc                 0      0.00%      2.00% # attempts to use FU when none available (Count)
system.cpu.statFuBusy::FloatDiv                     0      0.00%      2.00% # attempts to use FU when none available (Count)
system.cpu.statFuBusy::FloatMisc                    0      0.00%      2.00% # attempts to use FU when none available (Count)
system.cpu.statFuBusy::FloatSqrt                    0      0.00%      2.00% # attempts to use FU when none available (Count)
system.cpu.statFuBusy::SimdAdd                      0      0.00%      2.00% # attempts to use FU when none available (Count)
system.cpu.statFuBusy::SimdAddAcc                   0      0.00%      2.00% # attempts to use FU when none available (Count)
system.cpu.statFuBusy::SimdAlu                     11      0.00%      2.00% # attempts to use FU when none available (Count)
system.cpu.statFuBusy::SimdCmp                      0      0.00%      2.00% # attempts to use FU when none available (Count)
system.cpu.statFuBusy::SimdCvt                      0      0.00%      2.00% # attempts to use FU when none available (Count)
system.cpu.statFuBusy::SimdMisc                     2      0.00%      2.00% # attempts to use FU when none available (Count)
system.cpu.statFuBusy::SimdMult                     0      0.00%      2.00% # attempts to use FU when none available (Count)
system.cpu.statFuBusy::SimdMultAcc                  0      0.00%      2.00% # attempts to use FU when none available (Count)
system.cpu.statFuBusy::SimdShift                    0      0.00%      2.00% # attempts to use FU when none available (Count)
system.cpu.statFuBusy::SimdShiftAcc                 0      0.00%      2.00% # attempts to use FU when none available (Count)
system.cpu.statFuBusy::SimdDiv                      0      0.00%      2.00% # attempts to use FU when none available (Count)
system.cpu.statFuBusy::SimdSqrt                     0      0.00%      2.00% # attempts to use FU when none available (Count)
system.cpu.statFuBusy::SimdFloatAdd                 0      0.00%      2.00% # attempts to use FU when none available (Count)
system.cpu.statFuBusy::SimdFloatAlu                 0      0.00%      2.00% # attempts to use FU when none available (Count)
system.cpu.statFuBusy::SimdFloatCmp                 0      0.00%      2.00% # attempts to use FU when none available (Count)
system.cpu.statFuBusy::SimdFloatCvt                 0      0.00%      2.00% # attempts to use FU when none available (Count)
system.cpu.statFuBusy::SimdFloatDiv                 0      0.00%      2.00% # attempts to use FU when none available (Count)
system.cpu.statFuBusy::SimdFloatMisc                0      0.00%      2.00% # attempts to use FU when none available (Count)
system.cpu.statFuBusy::SimdFloatMult               34      0.00%      2.00% # attempts to use FU when none available (Count)
system.cpu.statFuBusy::SimdFloatMultAcc             0      0.00%      2.00% # attempts to use FU when none available (Count)
system.cpu.statFuBusy::SimdFloatSqrt                0      0.00%      2.00% # attempts to use FU when none available (Count)
system.cpu.statFuBusy::SimdReduceAdd                0      0.00%      2.00% # attempts to use FU when none available (Count)
system.cpu.statFuBusy::SimdReduceAlu                0      0.00%      2.00% # attempts to use FU when none available (Count)
system.cpu.statFuBusy::SimdReduceCmp                0      0.00%      2.00% # attempts to use FU when none available (Count)
system.cpu.statFuBusy::SimdFloatReduceAdd            0      0.00%      2.00% # attempts to use FU when none available (Count)
system.cpu.statFuBusy::SimdFloatReduceCmp            0      0.00%      2.00% # attempts to use FU when none available (Count)
system.cpu.statFuBusy::SimdAes                      0      0.00%      2.00% # attempts to use FU when none available (Count)
system.cpu.statFuBusy::SimdAesMix                   0      0.00%      2.00% # attempts to use FU when none available (Count)
system.cpu.statFuBusy::SimdSha1Hash                 0      0.00%      2.00% # attempts to use FU when none available (Count)
system.cpu.statFuBusy::SimdSha1Hash2                0      0.00%      2.00% # attempts to use FU when none available (Count)
system.cpu.statFuBusy::SimdSha256Hash               0      0.00%      2.00% # attempts to use FU when none available (Count)
system.cpu.statFuBusy::SimdSha256Hash2              0      0.00%      2.00% # attempts to use FU when none available (Count)
system.cpu.statFuBusy::SimdShaSigma2                0      0.00%      2.00% # attempts to use FU when none available (Count)
system.cpu.statFuBusy::SimdShaSigma3                0      0.00%      2.00% # attempts to use FU when none available (Count)
system.cpu.statFuBusy::SimdPredAlu                  0      0.00%      2.00% # attempts to use FU when none available (Count)
system.cpu.statFuBusy::MemRead                1714158     45.00%     47.01% # attempts to use FU when none available (Count)
system.cpu.statFuBusy::MemWrite                    19      0.00%     47.01% # attempts to use FU when none available (Count)
system.cpu.statFuBusy::FloatMemRead           2018520     52.99%    100.00% # attempts to use FU when none available (Count)
system.cpu.statFuBusy::FloatMemWrite               11      0.00%    100.00% # attempts to use FU when none available (Count)
system.cpu.statFuBusy::IprAccess                    0      0.00%    100.00% # attempts to use FU when none available (Count)
system.cpu.statFuBusy::InstPrefetch                 0      0.00%    100.00% # attempts to use FU when none available (Count)
system.cpu.statIssuedInstType_0::No_OpClass          616      0.00%      0.00% # Number of instructions issued per FU type, per thread (Count)
system.cpu.statIssuedInstType_0::IntAlu      11528510     34.64%     34.64% # Number of instructions issued per FU type, per thread (Count)
system.cpu.statIssuedInstType_0::IntMult            5      0.00%     34.64% # Number of instructions issued per FU type, per thread (Count)
system.cpu.statIssuedInstType_0::IntDiv            21      0.00%     34.64% # Number of instructions issued per FU type, per thread (Count)
system.cpu.statIssuedInstType_0::FloatAdd      3198560      9.61%     44.25% # Number of instructions issued per FU type, per thread (Count)
system.cpu.statIssuedInstType_0::FloatCmp            0      0.00%     44.25% # Number of instructions issued per FU type, per thread (Count)
system.cpu.statIssuedInstType_0::FloatCvt            0      0.00%     44.25% # Number of instructions issued per FU type, per thread (Count)
system.cpu.statIssuedInstType_0::FloatMult            0      0.00%     44.25% # Number of instructions issued per FU type, per thread (Count)
system.cpu.statIssuedInstType_0::FloatMultAcc            0      0.00%     44.25% # Number of instructions issued per FU type, per thread (Count)
system.cpu.statIssuedInstType_0::FloatDiv            0      0.00%     44.25% # Number of instructions issued per FU type, per thread (Count)
system.cpu.statIssuedInstType_0::FloatMisc            0      0.00%     44.25% # Number of instructions issued per FU type, per thread (Count)
system.cpu.statIssuedInstType_0::FloatSqrt            0      0.00%     44.25% # Number of instructions issued per FU type, per thread (Count)
system.cpu.statIssuedInstType_0::SimdAdd            0      0.00%     44.25% # Number of instructions issued per FU type, per thread (Count)
system.cpu.statIssuedInstType_0::SimdAddAcc            0      0.00%     44.25% # Number of instructions issued per FU type, per thread (Count)
system.cpu.statIssuedInstType_0::SimdAlu          201      0.00%     44.25% # Number of instructions issued per FU type, per thread (Count)
system.cpu.statIssuedInstType_0::SimdCmp            0      0.00%     44.25% # Number of instructions issued per FU type, per thread (Count)
system.cpu.statIssuedInstType_0::SimdCvt           48      0.00%     44.25% # Number of instructions issued per FU type, per thread (Count)
system.cpu.statIssuedInstType_0::SimdMisc          218      0.00%     44.25% # Number of instructions issued per FU type, per thread (Count)
system.cpu.statIssuedInstType_0::SimdMult            0      0.00%     44.25% # Number of instructions issued per FU type, per thread (Count)
system.cpu.statIssuedInstType_0::SimdMultAcc            0      0.00%     44.25% # Number of instructions issued per FU type, per thread (Count)
system.cpu.statIssuedInstType_0::SimdShift            0      0.00%     44.25% # Number of instructions issued per FU type, per thread (Count)
system.cpu.statIssuedInstType_0::SimdShiftAcc            0      0.00%     44.25% # Number of instructions issued per FU type, per thread (Count)
system.cpu.statIssuedInstType_0::SimdDiv            0      0.00%     44.25% # Number of instructions issued per FU type, per thread (Count)
system.cpu.statIssuedInstType_0::SimdSqrt            0      0.00%     44.25% # Number of instructions issued per FU type, per thread (Count)
system.cpu.statIssuedInstType_0::SimdFloatAdd      1603209      4.82%     49.07% # Number of instructions issued per FU type, per thread (Count)
system.cpu.statIssuedInstType_0::SimdFloatAlu            0      0.00%     49.07% # Number of instructions issued per FU type, per thread (Count)
system.cpu.statIssuedInstType_0::SimdFloatCmp            0      0.00%     49.07% # Number of instructions issued per FU type, per thread (Count)
system.cpu.statIssuedInstType_0::SimdFloatCvt            0      0.00%     49.07% # Number of instructions issued per FU type, per thread (Count)
system.cpu.statIssuedInstType_0::SimdFloatDiv            0      0.00%     49.07% # Number of instructions issued per FU type, per thread (Count)
system.cpu.statIssuedInstType_0::SimdFloatMisc            0      0.00%     49.07% # Number of instructions issued per FU type, per thread (Count)
system.cpu.statIssuedInstType_0::SimdFloatMult      1578669      4.74%     53.81% # Number of instructions issued per FU type, per thread (Count)
system.cpu.statIssuedInstType_0::SimdFloatMultAcc            0      0.00%     53.81% # Number of instructions issued per FU type, per thread (Count)
system.cpu.statIssuedInstType_0::SimdFloatSqrt            0      0.00%     53.81% # Number of instructions issued per FU type, per thread (Count)
system.cpu.statIssuedInstType_0::SimdReduceAdd            0      0.00%     53.81% # Number of instructions issued per FU type, per thread (Count)
system.cpu.statIssuedInstType_0::SimdReduceAlu            0      0.00%     53.81% # Number of instructions issued per FU type, per thread (Count)
system.cpu.statIssuedInstType_0::SimdReduceCmp            0      0.00%     53.81% # Number of instructions issued per FU type, per thread (Count)
system.cpu.statIssuedInstType_0::SimdFloatReduceAdd            0      0.00%     53.81% # Number of instructions issued per FU type, per thread (Count)
system.cpu.statIssuedInstType_0::SimdFloatReduceCmp            0      0.00%     53.81% # Number of instructions issued per FU type, per thread (Count)
system.cpu.statIssuedInstType_0::SimdAes            0      0.00%     53.81% # Number of instructions issued per FU type, per thread (Count)
system.cpu.statIssuedInstType_0::SimdAesMix            0      0.00%     53.81% # Number of instructions issued per FU type, per thread (Count)
system.cpu.statIssuedInstType_0::SimdSha1Hash            0      0.00%     53.81% # Number of instructions issued per FU type, per thread (Count)
system.cpu.statIssuedInstType_0::SimdSha1Hash2            0      0.00%     53.81% # Number of instructions issued per FU type, per thread (Count)
system.cpu.statIssuedInstType_0::SimdSha256Hash            0      0.00%     53.81% # Number of instructions issued per FU type, per thread (Count)
system.cpu.statIssuedInstType_0::SimdSha256Hash2            0      0.00%     53.81% # Number of instructions issued per FU type, per thread (Count)
system.cpu.statIssuedInstType_0::SimdShaSigma2            0      0.00%     53.81% # Number of instructions issued per FU type, per thread (Count)
system.cpu.statIssuedInstType_0::SimdShaSigma3            0      0.00%     53.81% # Number of instructions issued per FU type, per thread (Count)
system.cpu.statIssuedInstType_0::SimdPredAlu            0      0.00%     53.81% # Number of instructions issued per FU type, per thread (Count)
system.cpu.statIssuedInstType_0::MemRead      5668217     17.03%     70.84% # Number of instructions issued per FU type, per thread (Count)
system.cpu.statIssuedInstType_0::MemWrite         1699      0.01%     70.84% # Number of instructions issued per FU type, per thread (Count)
system.cpu.statIssuedInstType_0::FloatMemRead      9679837     29.08%     99.92% # Number of instructions issued per FU type, per thread (Count)
system.cpu.statIssuedInstType_0::FloatMemWrite        25100      0.08%    100.00% # Number of instructions issued per FU type, per thread (Count)
system.cpu.statIssuedInstType_0::IprAccess            0      0.00%    100.00% # Number of instructions issued per FU type, per thread (Count)
system.cpu.statIssuedInstType_0::InstPrefetch            0      0.00%    100.00% # Number of instructions issued per FU type, per thread (Count)
system.cpu.statIssuedInstType_0::total       33284910                       # Number of instructions issued per FU type, per thread (Count)
system.cpu.issueRate                         1.117513                       # Inst issue rate ((Count/Cycle))
system.cpu.fuBusy                             3809061                       # FU busy when requested (Count)
system.cpu.fuBusyRate                        0.114438                       # FU busy rate (busy events/executed inst) ((Count/Count))
system.cpu.intInstQueueReads                 65877838                       # Number of integer instruction queue reads (Count)
system.cpu.intInstQueueWrites                13314551                       # Number of integer instruction queue writes (Count)
system.cpu.intInstQueueWakeupAccesses        13092371                       # Number of integer instruction queue wakeup accesses (Count)
system.cpu.fpInstQueueReads                  34297309                       # Number of floating instruction queue reads (Count)
system.cpu.fpInstQueueWrites                  9816819                       # Number of floating instruction queue writes (Count)
system.cpu.fpInstQueueWakeupAccesses          9628109                       # Number of floating instruction queue wakeup accesses (Count)
system.cpu.vecInstQueueReads                        0                       # Number of vector instruction queue reads (Count)
system.cpu.vecInstQueueWrites                       0                       # Number of vector instruction queue writes (Count)
system.cpu.vecInstQueueWakeupAccesses               0                       # Number of vector instruction queue wakeup accesses (Count)
system.cpu.intAluAccesses                    18939488                       # Number of integer alu accesses (Count)
system.cpu.fpAluAccesses                     18153867                       # Number of floating point alu accesses (Count)
system.cpu.vecAluAccesses                           0                       # Number of vector alu accesses (Count)
system.cpu.numInsts                          33247007                       # Number of executed instructions (Count)
system.cpu.numLoadInsts                      15339605                       # Number of load instructions executed (Count)
system.cpu.numSquashedInsts                     37903                       # Number of squashed instructions skipped in execute (Count)
system.cpu.numSwp                                   0                       # Number of swp insts executed (Count)
system.cpu.numNop                                   0                       # Number of nop insts executed (Count)
system.cpu.numRefs                           15366317                       # Number of memory reference insts executed (Count)
system.cpu.numBranches                        1632794                       # Number of branches executed (Count)
system.cpu.numStoreInsts                        26712                       # Number of stores executed (Count)
system.cpu.numRate                           1.116241                       # Inst execution rate ((Count/Cycle))
system.cpu.timesIdled                             272                       # Number of times that the entire CPU went into an idle state and unscheduled itself (Count)
system.cpu.idleCycles                            9089                       # Total number of cycles that the CPU has spent unscheduled due to idling (Cycle)
system.cpu.committedInsts                    11352627                       # Number of Instructions Simulated (Count)
system.cpu.committedOps                      22631712                       # Number of Ops (including micro ops) Simulated (Count)
system.cpu.cpi                               2.623605                       # CPI: Cycles Per Instruction ((Cycle/Count))
system.cpu.totalCpi                          2.623605                       # CPI: Total CPI of All Threads ((Cycle/Count))
system.cpu.ipc                               0.381155                       # IPC: Instructions Per Cycle ((Count/Cycle))
system.cpu.totalIpc                          0.381155                       # IPC: Total IPC of All Threads ((Count/Cycle))
system.cpu.intRegfileReads                   42160002                       # Number of integer regfile reads (Count)
system.cpu.intRegfileWrites                  11433496                       # Number of integer regfile writes (Count)
system.cpu.fpRegfileReads                     9670396                       # Number of floating regfile reads (Count)
system.cpu.fpRegfileWrites                    9603947                       # Number of floating regfile writes (Count)
system.cpu.ccRegfileReads                     8162899                       # number of cc regfile reads (Count)
system.cpu.ccRegfileWrites                    6546258                       # number of cc regfile writes (Count)
system.cpu.miscRegfileReads                  18639338                       # number of misc regfile reads (Count)
system.cpu.MemDepUnit__0.insertedLoads        4871788                       # Number of loads inserted to the mem dependence unit. (Count)
system.cpu.MemDepUnit__0.insertedStores         27389                       # Number of stores inserted to the mem dependence unit. (Count)
system.cpu.MemDepUnit__0.conflictingLoads         1052                       # Number of conflicting loads. (Count)
system.cpu.MemDepUnit__0.conflictingStores         1008                       # Number of conflicting stores. (Count)
system.cpu.MemDepUnit__1.insertedLoads              0                       # Number of loads inserted to the mem dependence unit. (Count)
system.cpu.MemDepUnit__1.insertedStores             0                       # Number of stores inserted to the mem dependence unit. (Count)
system.cpu.MemDepUnit__1.conflictingLoads            0                       # Number of conflicting loads. (Count)
system.cpu.MemDepUnit__1.conflictingStores            0                       # Number of conflicting stores. (Count)
system.cpu.MemDepUnit__2.insertedLoads              0                       # Number of loads inserted to the mem dependence unit. (Count)
system.cpu.MemDepUnit__2.insertedStores             0                       # Number of stores inserted to the mem dependence unit. (Count)
system.cpu.MemDepUnit__2.conflictingLoads            0                       # Number of conflicting loads. (Count)
system.cpu.MemDepUnit__2.conflictingStores            0                       # Number of conflicting stores. (Count)
system.cpu.MemDepUnit__3.insertedLoads              0                       # Number of loads inserted to the mem dependence unit. (Count)
system.cpu.MemDepUnit__3.insertedStores             0                       # Number of stores inserted to the mem dependence unit. (Count)
system.cpu.MemDepUnit__3.conflictingLoads            0                       # Number of conflicting loads. (Count)
system.cpu.MemDepUnit__3.conflictingStores            0                       # Number of conflicting stores. (Count)
system.cpu.branchPred.lookups                 1710580                       # Number of BP lookups (Count)
system.cpu.branchPred.condPredicted           1709357                       # Number of conditional branches predicted (Count)
system.cpu.branchPred.condIncorrect             25467                       # Number of conditional branches incorrect (Count)
system.cpu.branchPred.BTBLookups              1683061                       # Number of BTB lookups (Count)
system.cpu.branchPred.BTBHits                 1682384                       # Number of BTB hits (Count)
system.cpu.branchPred.BTBHitRatio            0.999598                       # BTB Hit Ratio (Ratio)
system.cpu.branchPred.RASUsed                     287                       # Number of times the RAS was used to get a target. (Count)
system.cpu.branchPred.RASIncorrect                  0                       # Number of incorrect RAS predictions. (Count)
system.cpu.branchPred.indirectLookups             296                       # Number of indirect predictor lookups. (Count)
system.cpu.branchPred.indirectHits                 14                       # Number of indirect target hits. (Count)
system.cpu.branchPred.indirectMisses              282                       # Number of indirect misses. (Count)
system.cpu.branchPred.indirectMispredicted           92                       # Number of mispredicted indirect branches. (Count)
system.cpu.commit.commitSquashedInsts          253389                       # The number of squashed insts skipped by commit (Count)
system.cpu.commit.branchMispredicts             25324                       # The number of times a branch was mispredicted (Count)
system.cpu.commit.numCommittedDist::samples     29728268                       # Number of insts commited each cycle (Count)
system.cpu.commit.numCommittedDist::mean     0.761286                       # Number of insts commited each cycle (Count)
system.cpu.commit.numCommittedDist::stdev     2.005955                       # Number of insts commited each cycle (Count)
system.cpu.commit.numCommittedDist::underflows            0      0.00%      0.00% # Number of insts commited each cycle (Count)
system.cpu.commit.numCommittedDist::0        24260136     81.61%     81.61% # Number of insts commited each cycle (Count)
system.cpu.commit.numCommittedDist::1          961763      3.24%     84.84% # Number of insts commited each cycle (Count)
system.cpu.commit.numCommittedDist::2         1204003      4.05%     88.89% # Number of insts commited each cycle (Count)
system.cpu.commit.numCommittedDist::3         1317028      4.43%     93.32% # Number of insts commited each cycle (Count)
system.cpu.commit.numCommittedDist::4            5710      0.02%     93.34% # Number of insts commited each cycle (Count)
system.cpu.commit.numCommittedDist::5          103936      0.35%     93.69% # Number of insts commited each cycle (Count)
system.cpu.commit.numCommittedDist::6           22187      0.07%     93.77% # Number of insts commited each cycle (Count)
system.cpu.commit.numCommittedDist::7          192823      0.65%     94.41% # Number of insts commited each cycle (Count)
system.cpu.commit.numCommittedDist::8         1660682      5.59%    100.00% # Number of insts commited each cycle (Count)
system.cpu.commit.numCommittedDist::overflows            0      0.00%    100.00% # Number of insts commited each cycle (Count)
system.cpu.commit.numCommittedDist::min_value            0                       # Number of insts commited each cycle (Count)
system.cpu.commit.numCommittedDist::max_value            8                       # Number of insts commited each cycle (Count)
system.cpu.commit.numCommittedDist::total     29728268                       # Number of insts commited each cycle (Count)
system.cpu.commit.instsCommitted             11352627                       # Number of instructions committed (Count)
system.cpu.commit.opsCommitted               22631712                       # Number of ops (including micro ops) committed (Count)
system.cpu.commit.memRefs                     4837230                       # Number of memory references committed (Count)
system.cpu.commit.loads                       4811056                       # Number of loads committed (Count)
system.cpu.commit.amos                              0                       # Number of atomic instructions committed (Count)
system.cpu.commit.membars                           0                       # Number of memory barriers committed (Count)
system.cpu.commit.branches                    1629429                       # Number of branches committed (Count)
system.cpu.commit.vectorInstructions                0                       # Number of committed Vector instructions. (Count)
system.cpu.commit.floating                    9595687                       # Number of committed floating point instructions. (Count)
system.cpu.commit.integer                    16218842                       # Number of committed integer instructions. (Count)
system.cpu.commit.functionCalls                   143                       # Number of function calls committed. (Count)
system.cpu.commit.committedInstType_0::No_OpClass          186      0.00%      0.00% # Class of committed instruction (Count)
system.cpu.commit.committedInstType_0::IntAlu     11454754     50.61%     50.61% # Class of committed instruction (Count)
system.cpu.commit.committedInstType_0::IntMult            5      0.00%     50.61% # Class of committed instruction (Count)
system.cpu.commit.committedInstType_0::IntDiv           21      0.00%     50.61% # Class of committed instruction (Count)
system.cpu.commit.committedInstType_0::FloatAdd      3157359     13.95%     64.57% # Class of committed instruction (Count)
system.cpu.commit.committedInstType_0::FloatCmp            0      0.00%     64.57% # Class of committed instruction (Count)
system.cpu.commit.committedInstType_0::FloatCvt            0      0.00%     64.57% # Class of committed instruction (Count)
system.cpu.commit.committedInstType_0::FloatMult            0      0.00%     64.57% # Class of committed instruction (Count)
system.cpu.commit.committedInstType_0::FloatMultAcc            0      0.00%     64.57% # Class of committed instruction (Count)
system.cpu.commit.committedInstType_0::FloatDiv            0      0.00%     64.57% # Class of committed instruction (Count)
system.cpu.commit.committedInstType_0::FloatMisc            0      0.00%     64.57% # Class of committed instruction (Count)
system.cpu.commit.committedInstType_0::FloatSqrt            0      0.00%     64.57% # Class of committed instruction (Count)
system.cpu.commit.committedInstType_0::SimdAdd            0      0.00%     64.57% # Class of committed instruction (Count)
system.cpu.commit.committedInstType_0::SimdAddAcc            0      0.00%     64.57% # Class of committed instruction (Count)
system.cpu.commit.committedInstType_0::SimdAlu           96      0.00%     64.57% # Class of committed instruction (Count)
system.cpu.commit.committedInstType_0::SimdCmp            0      0.00%     64.57% # Class of committed instruction (Count)
system.cpu.commit.committedInstType_0::SimdCvt           46      0.00%     64.57% # Class of committed instruction (Count)
system.cpu.commit.committedInstType_0::SimdMisc          215      0.00%     64.57% # Class of committed instruction (Count)
system.cpu.commit.committedInstType_0::SimdMult            0      0.00%     64.57% # Class of committed instruction (Count)
system.cpu.commit.committedInstType_0::SimdMultAcc            0      0.00%     64.57% # Class of committed instruction (Count)
system.cpu.commit.committedInstType_0::SimdShift            0      0.00%     64.57% # Class of committed instruction (Count)
system.cpu.commit.committedInstType_0::SimdShiftAcc            0      0.00%     64.57% # Class of committed instruction (Count)
system.cpu.commit.committedInstType_0::SimdDiv            0      0.00%     64.57% # Class of committed instruction (Count)
system.cpu.commit.committedInstType_0::SimdSqrt            0      0.00%     64.57% # Class of committed instruction (Count)
system.cpu.commit.committedInstType_0::SimdFloatAdd      1603188      7.08%     71.65% # Class of committed instruction (Count)
system.cpu.commit.committedInstType_0::SimdFloatAlu            0      0.00%     71.65% # Class of committed instruction (Count)
system.cpu.commit.committedInstType_0::SimdFloatCmp            0      0.00%     71.65% # Class of committed instruction (Count)
system.cpu.commit.committedInstType_0::SimdFloatCvt            0      0.00%     71.65% # Class of committed instruction (Count)
system.cpu.commit.committedInstType_0::SimdFloatDiv            0      0.00%     71.65% # Class of committed instruction (Count)
system.cpu.commit.committedInstType_0::SimdFloatMisc            0      0.00%     71.65% # Class of committed instruction (Count)
system.cpu.commit.committedInstType_0::SimdFloatMult      1578612      6.98%     78.63% # Class of committed instruction (Count)
system.cpu.commit.committedInstType_0::SimdFloatMultAcc            0      0.00%     78.63% # Class of committed instruction (Count)
system.cpu.commit.committedInstType_0::SimdFloatSqrt            0      0.00%     78.63% # Class of committed instruction (Count)
system.cpu.commit.committedInstType_0::SimdReduceAdd            0      0.00%     78.63% # Class of committed instruction (Count)
system.cpu.commit.committedInstType_0::SimdReduceAlu            0      0.00%     78.63% # Class of committed instruction (Count)
system.cpu.commit.committedInstType_0::SimdReduceCmp            0      0.00%     78.63% # Class of committed instruction (Count)
system.cpu.commit.committedInstType_0::SimdFloatReduceAdd            0      0.00%     78.63% # Class of committed instruction (Count)
system.cpu.commit.committedInstType_0::SimdFloatReduceCmp            0      0.00%     78.63% # Class of committed instruction (Count)
system.cpu.commit.committedInstType_0::SimdAes            0      0.00%     78.63% # Class of committed instruction (Count)
system.cpu.commit.committedInstType_0::SimdAesMix            0      0.00%     78.63% # Class of committed instruction (Count)
system.cpu.commit.committedInstType_0::SimdSha1Hash            0      0.00%     78.63% # Class of committed instruction (Count)
system.cpu.commit.committedInstType_0::SimdSha1Hash2            0      0.00%     78.63% # Class of committed instruction (Count)
system.cpu.commit.committedInstType_0::SimdSha256Hash            0      0.00%     78.63% # Class of committed instruction (Count)
system.cpu.commit.committedInstType_0::SimdSha256Hash2            0      0.00%     78.63% # Class of committed instruction (Count)
system.cpu.commit.committedInstType_0::SimdShaSigma2            0      0.00%     78.63% # Class of committed instruction (Count)
system.cpu.commit.committedInstType_0::SimdShaSigma3            0      0.00%     78.63% # Class of committed instruction (Count)
system.cpu.commit.committedInstType_0::SimdPredAlu            0      0.00%     78.63% # Class of committed instruction (Count)
system.cpu.commit.committedInstType_0::MemRead      1629210      7.20%     85.83% # Class of committed instruction (Count)
system.cpu.commit.committedInstType_0::MemWrite         1140      0.01%     85.83% # Class of committed instruction (Count)
system.cpu.commit.committedInstType_0::FloatMemRead      3181846     14.06%     99.89% # Class of committed instruction (Count)
system.cpu.commit.committedInstType_0::FloatMemWrite        25034      0.11%    100.00% # Class of committed instruction (Count)
system.cpu.commit.committedInstType_0::IprAccess            0      0.00%    100.00% # Class of committed instruction (Count)
system.cpu.commit.committedInstType_0::InstPrefetch            0      0.00%    100.00% # Class of committed instruction (Count)
system.cpu.commit.committedInstType_0::total     22631712                       # Class of committed instruction (Count)
system.cpu.commit.commitEligibleSamples       1660682                       # number cycles where commit BW limit reached (Cycle)
system.cpu.dcache.demandHits::cpu.data        2536920                       # number of demand (read+write) hits (Count)
system.cpu.dcache.demandHits::total           2536920                       # number of demand (read+write) hits (Count)
system.cpu.dcache.overallHits::cpu.data       2536920                       # number of overall hits (Count)
system.cpu.dcache.overallHits::total          2536920                       # number of overall hits (Count)
system.cpu.dcache.demandMisses::cpu.data      2410121                       # number of demand (read+write) misses (Count)
system.cpu.dcache.demandMisses::total         2410121                       # number of demand (read+write) misses (Count)
system.cpu.dcache.overallMisses::cpu.data      2410121                       # number of overall misses (Count)
system.cpu.dcache.overallMisses::total        2410121                       # number of overall misses (Count)
system.cpu.dcache.demandMissLatency::cpu.data 154763632999                       # number of demand (read+write) miss ticks (Tick)
system.cpu.dcache.demandMissLatency::total 154763632999                       # number of demand (read+write) miss ticks (Tick)
system.cpu.dcache.overallMissLatency::cpu.data 154763632999                       # number of overall miss ticks (Tick)
system.cpu.dcache.overallMissLatency::total 154763632999                       # number of overall miss ticks (Tick)
system.cpu.dcache.demandAccesses::cpu.data      4947041                       # number of demand (read+write) accesses (Count)
system.cpu.dcache.demandAccesses::total       4947041                       # number of demand (read+write) accesses (Count)
system.cpu.dcache.overallAccesses::cpu.data      4947041                       # number of overall (read+write) accesses (Count)
system.cpu.dcache.overallAccesses::total      4947041                       # number of overall (read+write) accesses (Count)
system.cpu.dcache.demandMissRate::cpu.data     0.487184                       # miss rate for demand accesses (Ratio)
system.cpu.dcache.demandMissRate::total      0.487184                       # miss rate for demand accesses (Ratio)
system.cpu.dcache.overallMissRate::cpu.data     0.487184                       # miss rate for overall accesses (Ratio)
system.cpu.dcache.overallMissRate::total     0.487184                       # miss rate for overall accesses (Ratio)
system.cpu.dcache.demandAvgMissLatency::cpu.data 64214.051078                       # average overall miss latency ((Cycle/Count))
system.cpu.dcache.demandAvgMissLatency::total 64214.051078                       # average overall miss latency ((Cycle/Count))
system.cpu.dcache.overallAvgMissLatency::cpu.data 64214.051078                       # average overall miss latency ((Cycle/Count))
system.cpu.dcache.overallAvgMissLatency::total 64214.051078                       # average overall miss latency ((Cycle/Count))
system.cpu.dcache.blockedCycles::no_mshrs     22080299                       # number of cycles access was blocked (Cycle)
system.cpu.dcache.blockedCycles::no_targets            0                       # number of cycles access was blocked (Cycle)
system.cpu.dcache.blockedCauses::no_mshrs      1169297                       # number of times access was blocked (Count)
system.cpu.dcache.blockedCauses::no_targets            0                       # number of times access was blocked (Count)
system.cpu.dcache.avgBlocked::no_mshrs      18.883397                       # average number of cycles each access was blocked ((Cycle/Count))
system.cpu.dcache.avgBlocked::no_targets          nan                       # average number of cycles each access was blocked ((Cycle/Count))
system.cpu.dcache.writebacks::writebacks         1886                       # number of writebacks (Count)
system.cpu.dcache.writebacks::total              1886                       # number of writebacks (Count)
system.cpu.dcache.demandMshrHits::cpu.data       971509                       # number of demand (read+write) MSHR hits (Count)
system.cpu.dcache.demandMshrHits::total        971509                       # number of demand (read+write) MSHR hits (Count)
system.cpu.dcache.overallMshrHits::cpu.data       971509                       # number of overall MSHR hits (Count)
system.cpu.dcache.overallMshrHits::total       971509                       # number of overall MSHR hits (Count)
system.cpu.dcache.demandMshrMisses::cpu.data      1438612                       # number of demand (read+write) MSHR misses (Count)
system.cpu.dcache.demandMshrMisses::total      1438612                       # number of demand (read+write) MSHR misses (Count)
system.cpu.dcache.overallMshrMisses::cpu.data      1438612                       # number of overall MSHR misses (Count)
system.cpu.dcache.overallMshrMisses::total      1438612                       # number of overall MSHR misses (Count)
system.cpu.dcache.demandMshrMissLatency::cpu.data 105541198999                       # number of demand (read+write) MSHR miss ticks (Tick)
system.cpu.dcache.demandMshrMissLatency::total 105541198999                       # number of demand (read+write) MSHR miss ticks (Tick)
system.cpu.dcache.overallMshrMissLatency::cpu.data 105541198999                       # number of overall MSHR miss ticks (Tick)
system.cpu.dcache.overallMshrMissLatency::total 105541198999                       # number of overall MSHR miss ticks (Tick)
system.cpu.dcache.demandMshrMissRate::cpu.data     0.290803                       # mshr miss ratio for demand accesses (Ratio)
system.cpu.dcache.demandMshrMissRate::total     0.290803                       # mshr miss ratio for demand accesses (Ratio)
system.cpu.dcache.overallMshrMissRate::cpu.data     0.290803                       # mshr miss ratio for overall accesses (Ratio)
system.cpu.dcache.overallMshrMissRate::total     0.290803                       # mshr miss ratio for overall accesses (Ratio)
system.cpu.dcache.demandAvgMshrMissLatency::cpu.data 73363.213291                       # average overall mshr miss latency ((Cycle/Count))
system.cpu.dcache.demandAvgMshrMissLatency::total 73363.213291                       # average overall mshr miss latency ((Cycle/Count))
system.cpu.dcache.overallAvgMshrMissLatency::cpu.data 73363.213291                       # average overall mshr miss latency ((Cycle/Count))
system.cpu.dcache.overallAvgMshrMissLatency::total 73363.213291                       # average overall mshr miss latency ((Cycle/Count))
system.cpu.dcache.replacements                1437588                       # number of replacements (Count)
system.cpu.dcache.ReadReq.hits::cpu.data      2510860                       # number of ReadReq hits (Count)
system.cpu.dcache.ReadReq.hits::total         2510860                       # number of ReadReq hits (Count)
system.cpu.dcache.ReadReq.misses::cpu.data      2410006                       # number of ReadReq misses (Count)
system.cpu.dcache.ReadReq.misses::total       2410006                       # number of ReadReq misses (Count)
system.cpu.dcache.ReadReq.missLatency::cpu.data 154756262000                       # number of ReadReq miss ticks (Tick)
system.cpu.dcache.ReadReq.missLatency::total 154756262000                       # number of ReadReq miss ticks (Tick)
system.cpu.dcache.ReadReq.accesses::cpu.data      4920866                       # number of ReadReq accesses(hits+misses) (Count)
system.cpu.dcache.ReadReq.accesses::total      4920866                       # number of ReadReq accesses(hits+misses) (Count)
system.cpu.dcache.ReadReq.missRate::cpu.data     0.489752                       # miss rate for ReadReq accesses (Ratio)
system.cpu.dcache.ReadReq.missRate::total     0.489752                       # miss rate for ReadReq accesses (Ratio)
system.cpu.dcache.ReadReq.avgMissLatency::cpu.data 64214.056728                       # average ReadReq miss latency ((Tick/Count))
system.cpu.dcache.ReadReq.avgMissLatency::total 64214.056728                       # average ReadReq miss latency ((Tick/Count))
system.cpu.dcache.ReadReq.mshrHits::cpu.data       971509                       # number of ReadReq MSHR hits (Count)
system.cpu.dcache.ReadReq.mshrHits::total       971509                       # number of ReadReq MSHR hits (Count)
system.cpu.dcache.ReadReq.mshrMisses::cpu.data      1438497                       # number of ReadReq MSHR misses (Count)
system.cpu.dcache.ReadReq.mshrMisses::total      1438497                       # number of ReadReq MSHR misses (Count)
system.cpu.dcache.ReadReq.mshrMissLatency::cpu.data 105534058000                       # number of ReadReq MSHR miss ticks (Tick)
system.cpu.dcache.ReadReq.mshrMissLatency::total 105534058000                       # number of ReadReq MSHR miss ticks (Tick)
system.cpu.dcache.ReadReq.mshrMissRate::cpu.data     0.292326                       # mshr miss rate for ReadReq accesses (Ratio)
system.cpu.dcache.ReadReq.mshrMissRate::total     0.292326                       # mshr miss rate for ReadReq accesses (Ratio)
system.cpu.dcache.ReadReq.avgMshrMissLatency::cpu.data 73364.114072                       # average ReadReq mshr miss latency ((Tick/Count))
system.cpu.dcache.ReadReq.avgMshrMissLatency::total 73364.114072                       # average ReadReq mshr miss latency ((Tick/Count))
system.cpu.dcache.WriteReq.hits::cpu.data        26060                       # number of WriteReq hits (Count)
system.cpu.dcache.WriteReq.hits::total          26060                       # number of WriteReq hits (Count)
system.cpu.dcache.WriteReq.misses::cpu.data          115                       # number of WriteReq misses (Count)
system.cpu.dcache.WriteReq.misses::total          115                       # number of WriteReq misses (Count)
system.cpu.dcache.WriteReq.missLatency::cpu.data      7370999                       # number of WriteReq miss ticks (Tick)
system.cpu.dcache.WriteReq.missLatency::total      7370999                       # number of WriteReq miss ticks (Tick)
system.cpu.dcache.WriteReq.accesses::cpu.data        26175                       # number of WriteReq accesses(hits+misses) (Count)
system.cpu.dcache.WriteReq.accesses::total        26175                       # number of WriteReq accesses(hits+misses) (Count)
system.cpu.dcache.WriteReq.missRate::cpu.data     0.004394                       # miss rate for WriteReq accesses (Ratio)
system.cpu.dcache.WriteReq.missRate::total     0.004394                       # miss rate for WriteReq accesses (Ratio)
system.cpu.dcache.WriteReq.avgMissLatency::cpu.data 64095.643478                       # average WriteReq miss latency ((Tick/Count))
system.cpu.dcache.WriteReq.avgMissLatency::total 64095.643478                       # average WriteReq miss latency ((Tick/Count))
system.cpu.dcache.WriteReq.mshrMisses::cpu.data          115                       # number of WriteReq MSHR misses (Count)
system.cpu.dcache.WriteReq.mshrMisses::total          115                       # number of WriteReq MSHR misses (Count)
system.cpu.dcache.WriteReq.mshrMissLatency::cpu.data      7140999                       # number of WriteReq MSHR miss ticks (Tick)
system.cpu.dcache.WriteReq.mshrMissLatency::total      7140999                       # number of WriteReq MSHR miss ticks (Tick)
system.cpu.dcache.WriteReq.mshrMissRate::cpu.data     0.004394                       # mshr miss rate for WriteReq accesses (Ratio)
system.cpu.dcache.WriteReq.mshrMissRate::total     0.004394                       # mshr miss rate for WriteReq accesses (Ratio)
system.cpu.dcache.WriteReq.avgMshrMissLatency::cpu.data 62095.643478                       # average WriteReq mshr miss latency ((Tick/Count))
system.cpu.dcache.WriteReq.avgMshrMissLatency::total 62095.643478                       # average WriteReq mshr miss latency ((Tick/Count))
system.cpu.dcache.power_state.pwrStateResidencyTicks::UNDEFINED  29784803000                       # Cumulative time (in ticks) in various power states (Tick)
system.cpu.dcache.tags.tagsInUse          1022.722473                       # Average ticks per tags in use ((Tick/Count))
system.cpu.dcache.tags.totalRefs              3975532                       # Total number of references to valid blocks. (Count)
system.cpu.dcache.tags.sampledRefs            1438612                       # Sample count of references to valid blocks. (Count)
system.cpu.dcache.tags.avgRefs               2.763450                       # Average number of references to valid blocks. ((Count/Count))
system.cpu.dcache.tags.warmupTick              150000                       # The tick when the warmup percentage was hit. (Tick)
system.cpu.dcache.tags.occupancies::cpu.data  1022.722473                       # Average occupied blocks per tick, per requestor ((Count/Tick))
system.cpu.dcache.tags.avgOccs::cpu.data     0.998752                       # Average percentage of cache occupancy ((Ratio/Tick))
system.cpu.dcache.tags.avgOccs::total        0.998752                       # Average percentage of cache occupancy ((Ratio/Tick))
system.cpu.dcache.tags.occupanciesTaskId::1024         1024                       # Occupied blocks per task id (Count)
system.cpu.dcache.tags.ageTaskId_1024::0          367                       # Occupied blocks per task id, per block age (Count)
system.cpu.dcache.tags.ageTaskId_1024::1          656                       # Occupied blocks per task id, per block age (Count)
system.cpu.dcache.tags.ageTaskId_1024::2            1                       # Occupied blocks per task id, per block age (Count)
system.cpu.dcache.tags.ratioOccsTaskId::1024            1                       # Ratio of occupied blocks and all blocks, per task id (Ratio)
system.cpu.dcache.tags.tagAccesses           11332694                       # Number of tag accesses (Count)
system.cpu.dcache.tags.dataAccesses          11332694                       # Number of data accesses (Count)
system.cpu.dcache.tags.power_state.pwrStateResidencyTicks::UNDEFINED  29784803000                       # Cumulative time (in ticks) in various power states (Tick)
system.cpu.decode.idleCycles                   993764                       # Number of cycles decode is idle (Cycle)
system.cpu.decode.blockedCycles              25712448                       # Number of cycles decode is blocked (Cycle)
system.cpu.decode.runCycles                   1123477                       # Number of cycles decode is running (Cycle)
system.cpu.decode.unblockCycles               1920670                       # Number of cycles decode is unblocking (Cycle)
system.cpu.decode.squashCycles                  25356                       # Number of cycles decode is squashing (Cycle)
system.cpu.decode.branchResolved              1628298                       # Number of times decode resolved a branch (Count)
system.cpu.decode.branchMispred                   222                       # Number of times decode detected a branch misprediction (Count)
system.cpu.decode.decodedInsts               23139646                       # Number of instructions handled by decode (Count)
system.cpu.decode.squashedInsts                  1032                       # Number of squashed instructions handled by decode (Count)
system.cpu.dtb_walker_cache.blockedCycles::no_mshrs            0                       # number of cycles access was blocked (Cycle)
system.cpu.dtb_walker_cache.blockedCycles::no_targets            0                       # number of cycles access was blocked (Cycle)
system.cpu.dtb_walker_cache.blockedCauses::no_mshrs            0                       # number of times access was blocked (Count)
system.cpu.dtb_walker_cache.blockedCauses::no_targets            0                       # number of times access was blocked (Count)
system.cpu.dtb_walker_cache.avgBlocked::no_mshrs          nan                       # average number of cycles each access was blocked ((Cycle/Count))
system.cpu.dtb_walker_cache.avgBlocked::no_targets          nan                       # average number of cycles each access was blocked ((Cycle/Count))
system.cpu.dtb_walker_cache.replacements            0                       # number of replacements (Count)
system.cpu.dtb_walker_cache.power_state.pwrStateResidencyTicks::UNDEFINED  29784803000                       # Cumulative time (in ticks) in various power states (Tick)
system.cpu.dtb_walker_cache.tags.tagsInUse            0                       # Average ticks per tags in use ((Tick/Count))
system.cpu.dtb_walker_cache.tags.totalRefs            0                       # Total number of references to valid blocks. (Count)
system.cpu.dtb_walker_cache.tags.sampledRefs            0                       # Sample count of references to valid blocks. (Count)
system.cpu.dtb_walker_cache.tags.avgRefs          nan                       # Average number of references to valid blocks. ((Count/Count))
system.cpu.dtb_walker_cache.tags.warmupTick            0                       # The tick when the warmup percentage was hit. (Tick)
system.cpu.dtb_walker_cache.tags.tagAccesses            0                       # Number of tag accesses (Count)
system.cpu.dtb_walker_cache.tags.dataAccesses            0                       # Number of data accesses (Count)
system.cpu.dtb_walker_cache.tags.power_state.pwrStateResidencyTicks::UNDEFINED  29784803000                       # Cumulative time (in ticks) in various power states (Tick)
system.cpu.fetch.icacheStallCycles            3381288                       # Number of cycles fetch is stalled on an Icache miss (Cycle)
system.cpu.fetch.insts                       11984920                       # Number of instructions fetch has processed (Count)
system.cpu.fetch.branches                     1710580                       # Number of branches that fetch encountered (Count)
system.cpu.fetch.predictedBranches            1682685                       # Number of branches that fetch has predicted taken (Count)
system.cpu.fetch.cycles                      26368299                       # Number of cycles fetch has run and was not squashing or blocked (Cycle)
system.cpu.fetch.squashCycles                   51140                       # Number of cycles fetch has spent squashing (Cycle)
system.cpu.fetch.miscStallCycles                   82                       # Number of cycles fetch has spent waiting on interrupts, or bad addresses, or out of MSHRs (Cycle)
system.cpu.fetch.pendingTrapStallCycles           475                       # Number of stall cycles due to pending traps (Cycle)
system.cpu.fetch.pendingQuiesceStallCycles            1                       # Number of stall cycles due to pending quiesce instructions (Cycle)
system.cpu.fetch.cacheLines                   3367561                       # Number of cache lines fetched (Count)
system.cpu.fetch.icacheSquashes                  8248                       # Number of outstanding Icache misses that were squashed (Count)
system.cpu.fetch.nisnDist::samples           29775715                       # Number of instructions fetched each cycle (Total) (Count)
system.cpu.fetch.nisnDist::mean              0.802450                       # Number of instructions fetched each cycle (Total) (Count)
system.cpu.fetch.nisnDist::stdev             2.048426                       # Number of instructions fetched each cycle (Total) (Count)
system.cpu.fetch.nisnDist::underflows               0      0.00%      0.00% # Number of instructions fetched each cycle (Total) (Count)
system.cpu.fetch.nisnDist::0                 24548821     82.45%     82.45% # Number of instructions fetched each cycle (Total) (Count)
system.cpu.fetch.nisnDist::1                  1275004      4.28%     86.73% # Number of instructions fetched each cycle (Total) (Count)
system.cpu.fetch.nisnDist::2                   229878      0.77%     87.50% # Number of instructions fetched each cycle (Total) (Count)
system.cpu.fetch.nisnDist::3                   249673      0.84%     88.34% # Number of instructions fetched each cycle (Total) (Count)
system.cpu.fetch.nisnDist::4                   232427      0.78%     89.12% # Number of instructions fetched each cycle (Total) (Count)
system.cpu.fetch.nisnDist::5                  1645435      5.53%     94.65% # Number of instructions fetched each cycle (Total) (Count)
system.cpu.fetch.nisnDist::6                   157592      0.53%     95.17% # Number of instructions fetched each cycle (Total) (Count)
system.cpu.fetch.nisnDist::7                   187770      0.63%     95.80% # Number of instructions fetched each cycle (Total) (Count)
system.cpu.fetch.nisnDist::8                  1249115      4.20%    100.00% # Number of instructions fetched each cycle (Total) (Count)
system.cpu.fetch.nisnDist::overflows                0      0.00%    100.00% # Number of instructions fetched each cycle (Total) (Count)
system.cpu.fetch.nisnDist::min_value                0                       # Number of instructions fetched each cycle (Total) (Count)
system.cpu.fetch.nisnDist::max_value                8                       # Number of instructions fetched each cycle (Total) (Count)
system.cpu.fetch.nisnDist::total             29775715                       # Number of instructions fetched each cycle (Total) (Count)
system.cpu.fetch.branchRate                  0.057431                       # Number of branch fetches per cycle (Ratio)
system.cpu.fetch.rate                        0.402384                       # Number of inst fetches per cycle ((Count/Cycle))
system.cpu.icache.demandHits::cpu.inst        3366979                       # number of demand (read+write) hits (Count)
system.cpu.icache.demandHits::total           3366979                       # number of demand (read+write) hits (Count)
system.cpu.icache.overallHits::cpu.inst       3366979                       # number of overall hits (Count)
system.cpu.icache.overallHits::total          3366979                       # number of overall hits (Count)
system.cpu.icache.demandMisses::cpu.inst          582                       # number of demand (read+write) misses (Count)
system.cpu.icache.demandMisses::total             582                       # number of demand (read+write) misses (Count)
system.cpu.icache.overallMisses::cpu.inst          582                       # number of overall misses (Count)
system.cpu.icache.overallMisses::total            582                       # number of overall misses (Count)
system.cpu.icache.demandMissLatency::cpu.inst     33275000                       # number of demand (read+write) miss ticks (Tick)
system.cpu.icache.demandMissLatency::total     33275000                       # number of demand (read+write) miss ticks (Tick)
system.cpu.icache.overallMissLatency::cpu.inst     33275000                       # number of overall miss ticks (Tick)
system.cpu.icache.overallMissLatency::total     33275000                       # number of overall miss ticks (Tick)
system.cpu.icache.demandAccesses::cpu.inst      3367561                       # number of demand (read+write) accesses (Count)
system.cpu.icache.demandAccesses::total       3367561                       # number of demand (read+write) accesses (Count)
system.cpu.icache.overallAccesses::cpu.inst      3367561                       # number of overall (read+write) accesses (Count)
system.cpu.icache.overallAccesses::total      3367561                       # number of overall (read+write) accesses (Count)
system.cpu.icache.demandMissRate::cpu.inst     0.000173                       # miss rate for demand accesses (Ratio)
system.cpu.icache.demandMissRate::total      0.000173                       # miss rate for demand accesses (Ratio)
system.cpu.icache.overallMissRate::cpu.inst     0.000173                       # miss rate for overall accesses (Ratio)
system.cpu.icache.overallMissRate::total     0.000173                       # miss rate for overall accesses (Ratio)
system.cpu.icache.demandAvgMissLatency::cpu.inst 57173.539519                       # average overall miss latency ((Cycle/Count))
system.cpu.icache.demandAvgMissLatency::total 57173.539519                       # average overall miss latency ((Cycle/Count))
system.cpu.icache.overallAvgMissLatency::cpu.inst 57173.539519                       # average overall miss latency ((Cycle/Count))
system.cpu.icache.overallAvgMissLatency::total 57173.539519                       # average overall miss latency ((Cycle/Count))
system.cpu.icache.blockedCycles::no_mshrs           12                       # number of cycles access was blocked (Cycle)
system.cpu.icache.blockedCycles::no_targets            0                       # number of cycles access was blocked (Cycle)
system.cpu.icache.blockedCauses::no_mshrs            1                       # number of times access was blocked (Count)
system.cpu.icache.blockedCauses::no_targets            0                       # number of times access was blocked (Count)
system.cpu.icache.avgBlocked::no_mshrs             12                       # average number of cycles each access was blocked ((Cycle/Count))
system.cpu.icache.avgBlocked::no_targets          nan                       # average number of cycles each access was blocked ((Cycle/Count))
system.cpu.icache.writebacks::writebacks           19                       # number of writebacks (Count)
system.cpu.icache.writebacks::total                19                       # number of writebacks (Count)
system.cpu.icache.demandMshrHits::cpu.inst          113                       # number of demand (read+write) MSHR hits (Count)
system.cpu.icache.demandMshrHits::total           113                       # number of demand (read+write) MSHR hits (Count)
system.cpu.icache.overallMshrHits::cpu.inst          113                       # number of overall MSHR hits (Count)
system.cpu.icache.overallMshrHits::total          113                       # number of overall MSHR hits (Count)
system.cpu.icache.demandMshrMisses::cpu.inst          469                       # number of demand (read+write) MSHR misses (Count)
system.cpu.icache.demandMshrMisses::total          469                       # number of demand (read+write) MSHR misses (Count)
system.cpu.icache.overallMshrMisses::cpu.inst          469                       # number of overall MSHR misses (Count)
system.cpu.icache.overallMshrMisses::total          469                       # number of overall MSHR misses (Count)
system.cpu.icache.demandMshrMissLatency::cpu.inst     28043000                       # number of demand (read+write) MSHR miss ticks (Tick)
system.cpu.icache.demandMshrMissLatency::total     28043000                       # number of demand (read+write) MSHR miss ticks (Tick)
system.cpu.icache.overallMshrMissLatency::cpu.inst     28043000                       # number of overall MSHR miss ticks (Tick)
system.cpu.icache.overallMshrMissLatency::total     28043000                       # number of overall MSHR miss ticks (Tick)
system.cpu.icache.demandMshrMissRate::cpu.inst     0.000139                       # mshr miss ratio for demand accesses (Ratio)
system.cpu.icache.demandMshrMissRate::total     0.000139                       # mshr miss ratio for demand accesses (Ratio)
system.cpu.icache.overallMshrMissRate::cpu.inst     0.000139                       # mshr miss ratio for overall accesses (Ratio)
system.cpu.icache.overallMshrMissRate::total     0.000139                       # mshr miss ratio for overall accesses (Ratio)
system.cpu.icache.demandAvgMshrMissLatency::cpu.inst 59793.176972                       # average overall mshr miss latency ((Cycle/Count))
system.cpu.icache.demandAvgMshrMissLatency::total 59793.176972                       # average overall mshr miss latency ((Cycle/Count))
system.cpu.icache.overallAvgMshrMissLatency::cpu.inst 59793.176972                       # average overall mshr miss latency ((Cycle/Count))
system.cpu.icache.overallAvgMshrMissLatency::total 59793.176972                       # average overall mshr miss latency ((Cycle/Count))
system.cpu.icache.replacements                     19                       # number of replacements (Count)
system.cpu.icache.ReadReq.hits::cpu.inst      3366979                       # number of ReadReq hits (Count)
system.cpu.icache.ReadReq.hits::total         3366979                       # number of ReadReq hits (Count)
system.cpu.icache.ReadReq.misses::cpu.inst          582                       # number of ReadReq misses (Count)
system.cpu.icache.ReadReq.misses::total           582                       # number of ReadReq misses (Count)
system.cpu.icache.ReadReq.missLatency::cpu.inst     33275000                       # number of ReadReq miss ticks (Tick)
system.cpu.icache.ReadReq.missLatency::total     33275000                       # number of ReadReq miss ticks (Tick)
system.cpu.icache.ReadReq.accesses::cpu.inst      3367561                       # number of ReadReq accesses(hits+misses) (Count)
system.cpu.icache.ReadReq.accesses::total      3367561                       # number of ReadReq accesses(hits+misses) (Count)
system.cpu.icache.ReadReq.missRate::cpu.inst     0.000173                       # miss rate for ReadReq accesses (Ratio)
system.cpu.icache.ReadReq.missRate::total     0.000173                       # miss rate for ReadReq accesses (Ratio)
system.cpu.icache.ReadReq.avgMissLatency::cpu.inst 57173.539519                       # average ReadReq miss latency ((Tick/Count))
system.cpu.icache.ReadReq.avgMissLatency::total 57173.539519                       # average ReadReq miss latency ((Tick/Count))
system.cpu.icache.ReadReq.mshrHits::cpu.inst          113                       # number of ReadReq MSHR hits (Count)
system.cpu.icache.ReadReq.mshrHits::total          113                       # number of ReadReq MSHR hits (Count)
system.cpu.icache.ReadReq.mshrMisses::cpu.inst          469                       # number of ReadReq MSHR misses (Count)
system.cpu.icache.ReadReq.mshrMisses::total          469                       # number of ReadReq MSHR misses (Count)
system.cpu.icache.ReadReq.mshrMissLatency::cpu.inst     28043000                       # number of ReadReq MSHR miss ticks (Tick)
system.cpu.icache.ReadReq.mshrMissLatency::total     28043000                       # number of ReadReq MSHR miss ticks (Tick)
system.cpu.icache.ReadReq.mshrMissRate::cpu.inst     0.000139                       # mshr miss rate for ReadReq accesses (Ratio)
system.cpu.icache.ReadReq.mshrMissRate::total     0.000139                       # mshr miss rate for ReadReq accesses (Ratio)
system.cpu.icache.ReadReq.avgMshrMissLatency::cpu.inst 59793.176972                       # average ReadReq mshr miss latency ((Tick/Count))
system.cpu.icache.ReadReq.avgMshrMissLatency::total 59793.176972                       # average ReadReq mshr miss latency ((Tick/Count))
system.cpu.icache.power_state.pwrStateResidencyTicks::UNDEFINED  29784803000                       # Cumulative time (in ticks) in various power states (Tick)
system.cpu.icache.tags.tagsInUse           414.796934                       # Average ticks per tags in use ((Tick/Count))
system.cpu.icache.tags.totalRefs              3367447                       # Total number of references to valid blocks. (Count)
system.cpu.icache.tags.sampledRefs                468                       # Sample count of references to valid blocks. (Count)
system.cpu.icache.tags.avgRefs            7195.399573                       # Average number of references to valid blocks. ((Count/Count))
system.cpu.icache.tags.warmupTick               77000                       # The tick when the warmup percentage was hit. (Tick)
system.cpu.icache.tags.occupancies::cpu.inst   414.796934                       # Average occupied blocks per tick, per requestor ((Count/Tick))
system.cpu.icache.tags.avgOccs::cpu.inst     0.405075                       # Average percentage of cache occupancy ((Ratio/Tick))
system.cpu.icache.tags.avgOccs::total        0.405075                       # Average percentage of cache occupancy ((Ratio/Tick))
system.cpu.icache.tags.occupanciesTaskId::1024          449                       # Occupied blocks per task id (Count)
system.cpu.icache.tags.ageTaskId_1024::0           39                       # Occupied blocks per task id, per block age (Count)
system.cpu.icache.tags.ageTaskId_1024::4          410                       # Occupied blocks per task id, per block age (Count)
system.cpu.icache.tags.ratioOccsTaskId::1024     0.438477                       # Ratio of occupied blocks and all blocks, per task id (Ratio)
system.cpu.icache.tags.tagAccesses            6735590                       # Number of tag accesses (Count)
system.cpu.icache.tags.dataAccesses           6735590                       # Number of data accesses (Count)
system.cpu.icache.tags.power_state.pwrStateResidencyTicks::UNDEFINED  29784803000                       # Cumulative time (in ticks) in various power states (Tick)
system.cpu.iew.idleCycles                           0                       # Number of cycles IEW is idle (Cycle)
system.cpu.iew.squashCycles                     25356                       # Number of cycles IEW is squashing (Cycle)
system.cpu.iew.blockCycles                     444480                       # Number of cycles IEW is blocking (Cycle)
system.cpu.iew.unblockCycles                  1851914                       # Number of cycles IEW is unblocking (Cycle)
system.cpu.iew.dispatchedInsts               22881537                       # Number of instructions dispatched to IQ (Count)
system.cpu.iew.dispSquashedInsts                13058                       # Number of squashed instructions skipped by dispatch (Count)
system.cpu.iew.dispLoadInsts                  4871788                       # Number of dispatched load instructions (Count)
system.cpu.iew.dispStoreInsts                   27389                       # Number of dispatched store instructions (Count)
system.cpu.iew.dispNonSpecInsts                     0                       # Number of dispatched non-speculative instructions (Count)
system.cpu.iew.iqFullEvents                     16010                       # Number of times the IQ has become full, causing a stall (Count)
system.cpu.iew.lsqFullEvents                  1809641                       # Number of times the LSQ has become full, causing a stall (Count)
system.cpu.iew.memOrderViolationEvents             14                       # Number of memory order violations (Count)
system.cpu.iew.predictedTakenIncorrect          26179                       # Number of branches that were predicted taken incorrectly (Count)
system.cpu.iew.predictedNotTakenIncorrect         1427                       # Number of branches that were predicted not taken incorrectly (Count)
system.cpu.iew.branchMispredicts                27606                       # Number of branch mispredicts detected at execute (Count)
system.cpu.iew.instsToCommit                 22722329                       # Cumulative count of insts sent to commit (Count)
system.cpu.iew.writebackCount                22720480                       # Cumulative count of insts written-back (Count)
system.cpu.iew.producerInst                  17373020                       # Number of instructions producing a value (Count)
system.cpu.iew.consumerInst                  23460854                       # Number of instructions consuming a value (Count)
system.cpu.iew.wbRate                        0.762821                       # Insts written-back per cycle ((Count/Cycle))
system.cpu.iew.wbFanout                      0.740511                       # Average fanout of values written-back ((Count/Count))
system.cpu.interrupts.clk_domain.clock          16000                       # Clock period in ticks (Tick)
system.cpu.itb_walker_cache.blockedCycles::no_mshrs            0                       # number of cycles access was blocked (Cycle)
system.cpu.itb_walker_cache.blockedCycles::no_targets            0                       # number of cycles access was blocked (Cycle)
system.cpu.itb_walker_cache.blockedCauses::no_mshrs            0                       # number of times access was blocked (Count)
system.cpu.itb_walker_cache.blockedCauses::no_targets            0                       # number of times access was blocked (Count)
system.cpu.itb_walker_cache.avgBlocked::no_mshrs          nan                       # average number of cycles each access was blocked ((Cycle/Count))
system.cpu.itb_walker_cache.avgBlocked::no_targets          nan                       # average number of cycles each access was blocked ((Cycle/Count))
system.cpu.itb_walker_cache.replacements            0                       # number of replacements (Count)
system.cpu.itb_walker_cache.power_state.pwrStateResidencyTicks::UNDEFINED  29784803000                       # Cumulative time (in ticks) in various power states (Tick)
system.cpu.itb_walker_cache.tags.tagsInUse            0                       # Average ticks per tags in use ((Tick/Count))
system.cpu.itb_walker_cache.tags.totalRefs            0                       # Total number of references to valid blocks. (Count)
system.cpu.itb_walker_cache.tags.sampledRefs            0                       # Sample count of references to valid blocks. (Count)
system.cpu.itb_walker_cache.tags.avgRefs          nan                       # Average number of references to valid blocks. ((Count/Count))
system.cpu.itb_walker_cache.tags.warmupTick            0                       # The tick when the warmup percentage was hit. (Tick)
system.cpu.itb_walker_cache.tags.tagAccesses            0                       # Number of tag accesses (Count)
system.cpu.itb_walker_cache.tags.dataAccesses            0                       # Number of data accesses (Count)
system.cpu.itb_walker_cache.tags.power_state.pwrStateResidencyTicks::UNDEFINED  29784803000                       # Cumulative time (in ticks) in various power states (Tick)
system.cpu.lsq0.forwLoads                         184                       # Number of loads that had data forwarded from stores (Count)
system.cpu.lsq0.squashedLoads                   60732                       # Number of loads squashed (Count)
system.cpu.lsq0.ignoredResponses                    2                       # Number of memory responses ignored because the instruction is squashed (Count)
system.cpu.lsq0.memOrderViolation                  14                       # Number of memory ordering violations (Count)
system.cpu.lsq0.squashedStores                   1215                       # Number of stores squashed (Count)
system.cpu.lsq0.rescheduledLoads                    0                       # Number of loads that were rescheduled (Count)
system.cpu.lsq0.blockedByCache                1157410                       # Number of times an access to memory failed due to the cache being blocked (Count)
system.cpu.lsq0.loadToUse::samples            4811056                       # Distribution of cycle latency between the first time a load is issued and its completion (Unspecified)
system.cpu.lsq0.loadToUse::mean             81.370162                       # Distribution of cycle latency between the first time a load is issued and its completion (Unspecified)
system.cpu.lsq0.loadToUse::stdev            58.967302                       # Distribution of cycle latency between the first time a load is issued and its completion (Unspecified)
system.cpu.lsq0.loadToUse::0-9                 709984     14.76%     14.76% # Distribution of cycle latency between the first time a load is issued and its completion (Unspecified)
system.cpu.lsq0.loadToUse::10-19               133197      2.77%     17.53% # Distribution of cycle latency between the first time a load is issued and its completion (Unspecified)
system.cpu.lsq0.loadToUse::20-29                90642      1.88%     19.41% # Distribution of cycle latency between the first time a load is issued and its completion (Unspecified)
system.cpu.lsq0.loadToUse::30-39               207521      4.31%     23.72% # Distribution of cycle latency between the first time a load is issued and its completion (Unspecified)
system.cpu.lsq0.loadToUse::40-49               285299      5.93%     29.65% # Distribution of cycle latency between the first time a load is issued and its completion (Unspecified)
system.cpu.lsq0.loadToUse::50-59               320339      6.66%     36.31% # Distribution of cycle latency between the first time a load is issued and its completion (Unspecified)
system.cpu.lsq0.loadToUse::60-69               228788      4.76%     41.07% # Distribution of cycle latency between the first time a load is issued and its completion (Unspecified)
system.cpu.lsq0.loadToUse::70-79               391272      8.13%     49.20% # Distribution of cycle latency between the first time a load is issued and its completion (Unspecified)
system.cpu.lsq0.loadToUse::80-89               690659     14.36%     63.56% # Distribution of cycle latency between the first time a load is issued and its completion (Unspecified)
system.cpu.lsq0.loadToUse::90-99               299881      6.23%     69.79% # Distribution of cycle latency between the first time a load is issued and its completion (Unspecified)
system.cpu.lsq0.loadToUse::100-109             147727      3.07%     72.86% # Distribution of cycle latency between the first time a load is issued and its completion (Unspecified)
system.cpu.lsq0.loadToUse::110-119             187994      3.91%     76.77% # Distribution of cycle latency between the first time a load is issued and its completion (Unspecified)
system.cpu.lsq0.loadToUse::120-129             218342      4.54%     81.31% # Distribution of cycle latency between the first time a load is issued and its completion (Unspecified)
[...]
system.mem_ctrls.dram.bwWrite::total          4052536                       # Write bandwidth from this memory ((Byte/Second))
system.mem_ctrls.dram.bwTotal::writebacks      4052536                       # Total bandwidth to/from this memory ((Byte/Second))
system.mem_ctrls.dram.bwTotal::cpu.inst       1005614                       # Total bandwidth to/from this memory ((Byte/Second))
system.mem_ctrls.dram.bwTotal::cpu.data    3091212925                       # Total bandwidth to/from this memory ((Byte/Second))
system.mem_ctrls.dram.bwTotal::total       3096271075                       # Total bandwidth to/from this memory ((Byte/Second))
system.mem_ctrls.dram.readBursts              1438869                       # Number of DRAM read bursts (Count)
system.mem_ctrls.dram.writeBursts                1682                       # Number of DRAM write bursts (Count)
system.mem_ctrls.dram.perBankRdBursts::0        89582                       # Per bank write bursts (Count)
system.mem_ctrls.dram.perBankRdBursts::1        89967                       # Per bank write bursts (Count)
system.mem_ctrls.dram.perBankRdBursts::2        90492                       # Per bank write bursts (Count)
system.mem_ctrls.dram.perBankRdBursts::3        90223                       # Per bank write bursts (Count)
system.mem_ctrls.dram.perBankRdBursts::4        90093                       # Per bank write bursts (Count)
system.mem_ctrls.dram.perBankRdBursts::5        89268                       # Per bank write bursts (Count)
system.mem_ctrls.dram.perBankRdBursts::6        89528                       # Per bank write bursts (Count)
system.mem_ctrls.dram.perBankRdBursts::7        89420                       # Per bank write bursts (Count)
system.mem_ctrls.dram.perBankRdBursts::8        89209                       # Per bank write bursts (Count)
system.mem_ctrls.dram.perBankRdBursts::9        89443                       # Per bank write bursts (Count)
system.mem_ctrls.dram.perBankRdBursts::10        90140                       # Per bank write bursts (Count)
system.mem_ctrls.dram.perBankRdBursts::11        90943                       # Per bank write bursts (Count)
system.mem_ctrls.dram.perBankRdBursts::12        89922                       # Per bank write bursts (Count)
system.mem_ctrls.dram.perBankRdBursts::13        90126                       # Per bank write bursts (Count)
system.mem_ctrls.dram.perBankRdBursts::14        90561                       # Per bank write bursts (Count)
system.mem_ctrls.dram.perBankRdBursts::15        89952                       # Per bank write bursts (Count)
system.mem_ctrls.dram.perBankWrBursts::0            3                       # Per bank write bursts (Count)
system.mem_ctrls.dram.perBankWrBursts::1            7                       # Per bank write bursts (Count)
system.mem_ctrls.dram.perBankWrBursts::2            1                       # Per bank write bursts (Count)
system.mem_ctrls.dram.perBankWrBursts::3            0                       # Per bank write bursts (Count)
system.mem_ctrls.dram.perBankWrBursts::4            0                       # Per bank write bursts (Count)
system.mem_ctrls.dram.perBankWrBursts::5           44                       # Per bank write bursts (Count)
system.mem_ctrls.dram.perBankWrBursts::6           22                       # Per bank write bursts (Count)
system.mem_ctrls.dram.perBankWrBursts::7          162                       # Per bank write bursts (Count)
system.mem_ctrls.dram.perBankWrBursts::8            5                       # Per bank write bursts (Count)
system.mem_ctrls.dram.perBankWrBursts::9          232                       # Per bank write bursts (Count)
system.mem_ctrls.dram.perBankWrBursts::10          386                       # Per bank write bursts (Count)
system.mem_ctrls.dram.perBankWrBursts::11          386                       # Per bank write bursts (Count)
system.mem_ctrls.dram.perBankWrBursts::12          386                       # Per bank write bursts (Count)
system.mem_ctrls.dram.perBankWrBursts::13           39                       # Per bank write bursts (Count)
system.mem_ctrls.dram.perBankWrBursts::14            1                       # Per bank write bursts (Count)
system.mem_ctrls.dram.perBankWrBursts::15            8                       # Per bank write bursts (Count)
system.mem_ctrls.dram.totQLat             31526435000                       # Total ticks spent queuing (Tick)
system.mem_ctrls.dram.totBusLat            7194345000                       # Total ticks spent in databus transfers (Tick)
system.mem_ctrls.dram.totMemAccLat        58505228750                       # Total ticks spent from burst creation until serviced by the DRAM (Tick)
system.mem_ctrls.dram.avgQLat                21910.57                       # Average queueing delay per DRAM burst ((Tick/Count))
system.mem_ctrls.dram.avgBusLat               5000.00                       # Average bus latency per DRAM burst ((Tick/Count))
system.mem_ctrls.dram.avgMemAccLat           40660.57                       # Average memory access latency per DRAM burst ((Tick/Count))
system.mem_ctrls.dram.readRowHits              827779                       # Number of row buffer hits during reads (Count)
system.mem_ctrls.dram.writeRowHits               1538                       # Number of row buffer hits during writes (Count)
system.mem_ctrls.dram.readRowHitRate            57.53                       # Row buffer hit rate for reads (Ratio)
system.mem_ctrls.dram.writeRowHitRate           91.44                       # Row buffer hit rate for writes (Ratio)
system.mem_ctrls.dram.bytesPerActivate::samples       611224                       # Bytes accessed per row activation (Byte)
system.mem_ctrls.dram.bytesPerActivate::mean   150.833449                       # Bytes accessed per row activation (Byte)
system.mem_ctrls.dram.bytesPerActivate::gmean   126.400173                       # Bytes accessed per row activation (Byte)
system.mem_ctrls.dram.bytesPerActivate::stdev    95.646187                       # Bytes accessed per row activation (Byte)
system.mem_ctrls.dram.bytesPerActivate::0-127       215832     35.31%     35.31% # Bytes accessed per row activation (Byte)
system.mem_ctrls.dram.bytesPerActivate::128-255       283579     46.40%     81.71% # Bytes accessed per row activation (Byte)
system.mem_ctrls.dram.bytesPerActivate::256-383        86907     14.22%     95.93% # Bytes accessed per row activation (Byte)
system.mem_ctrls.dram.bytesPerActivate::384-511        19870      3.25%     99.18% # Bytes accessed per row activation (Byte)
system.mem_ctrls.dram.bytesPerActivate::512-639         3962      0.65%     99.82% # Bytes accessed per row activation (Byte)
system.mem_ctrls.dram.bytesPerActivate::640-767          797      0.13%     99.95% # Bytes accessed per row activation (Byte)
system.mem_ctrls.dram.bytesPerActivate::768-895          149      0.02%     99.98% # Bytes accessed per row activation (Byte)
system.mem_ctrls.dram.bytesPerActivate::896-1023           37      0.01%     99.99% # Bytes accessed per row activation (Byte)
system.mem_ctrls.dram.bytesPerActivate::1024-1151           91      0.01%    100.00% # Bytes accessed per row activation (Byte)
system.mem_ctrls.dram.bytesPerActivate::total       611224                       # Bytes accessed per row activation (Byte)
system.mem_ctrls.dram.bytesRead              92087616                       # Total bytes read (Byte)
system.mem_ctrls.dram.bytesWritten             107648                       # Total bytes written (Byte)
system.mem_ctrls.dram.avgRdBW             3091.765153                       # Average DRAM read bandwidth in MiBytes/s ((Byte/Second))
system.mem_ctrls.dram.avgWrBW                3.614192                       # Average DRAM write bandwidth in MiBytes/s ((Byte/Second))
system.mem_ctrls.dram.peakBW                 12800.00                       # Theoretical peak bandwidth in MiByte/s ((Byte/Second))
system.mem_ctrls.dram.busUtil                   24.18                       # Data bus utilization in percentage (Ratio)
system.mem_ctrls.dram.busUtilRead               24.15                       # Data bus utilization in percentage for reads (Ratio)
system.mem_ctrls.dram.busUtilWrite               0.03                       # Data bus utilization in percentage for writes (Ratio)
system.mem_ctrls.dram.pageHitRate               57.57                       # Row buffer hit rate, read and write combined (Ratio)
system.mem_ctrls.dram.power_state.pwrStateResidencyTicks::UNDEFINED  29784803000                       # Cumulative time (in ticks) in various power states (Tick)
system.mem_ctrls.dram.rank0.actEnergy      2153159820                       # Energy for activate commands per rank (pJ) (Joule)
system.mem_ctrls.dram.rank0.preEnergy      1144412610                       # Energy for precharge commands per rank (pJ) (Joule)
system.mem_ctrls.dram.rank0.readEnergy     5130611220                       # Energy for read commands per rank (pJ) (Joule)
system.mem_ctrls.dram.rank0.writeEnergy       1247580                       # Energy for write commands per rank (pJ) (Joule)
system.mem_ctrls.dram.rank0.refreshEnergy 2350998000.000000                       # Energy for refresh commands per rank (pJ) (Joule)
system.mem_ctrls.dram.rank0.actBackEnergy  13436360910                       # Energy for active background per rank (pJ) (Joule)
system.mem_ctrls.dram.rank0.preBackEnergy    122534400                       # Energy for precharge background per rank (pJ) (Joule)
system.mem_ctrls.dram.rank0.actPowerDownEnergy            0                       # Energy for active power-down per rank (pJ) (Joule)
system.mem_ctrls.dram.rank0.prePowerDownEnergy            0                       # Energy for precharge power-down per rank (pJ) (Joule)
system.mem_ctrls.dram.rank0.selfRefreshEnergy            0                       # Energy for self refresh per rank (pJ) (Joule)
system.mem_ctrls.dram.rank0.totalEnergy   24339324540                       # Total energy per rank (pJ) (Joule)
system.mem_ctrls.dram.rank0.averagePower   817.172588                       # Core power per rank (mW) (Watt)
system.mem_ctrls.dram.rank0.totalIdleTime            0                       # Total Idle time Per DRAM Rank (Tick)
system.mem_ctrls.dram.rank0.pwrStateTime::IDLE    210100750                       # Time in different power states (Tick)
system.mem_ctrls.dram.rank0.pwrStateTime::REF    994500000                       # Time in different power states (Tick)
system.mem_ctrls.dram.rank0.pwrStateTime::SREF            0                       # Time in different power states (Tick)
system.mem_ctrls.dram.rank0.pwrStateTime::PRE_PDN            0                       # Time in different power states (Tick)
system.mem_ctrls.dram.rank0.pwrStateTime::ACT  28580202250                       # Time in different power states (Tick)
system.mem_ctrls.dram.rank0.pwrStateTime::ACT_PDN            0                       # Time in different power states (Tick)
system.mem_ctrls.dram.rank1.actEnergy      2211050940                       # Energy for activate commands per rank (pJ) (Joule)
system.mem_ctrls.dram.rank1.preEnergy      1175182470                       # Energy for precharge commands per rank (pJ) (Joule)
system.mem_ctrls.dram.rank1.readEnergy     5142913440                       # Energy for read commands per rank (pJ) (Joule)
system.mem_ctrls.dram.rank1.writeEnergy       7532460                       # Energy for write commands per rank (pJ) (Joule)
system.mem_ctrls.dram.rank1.refreshEnergy 2350998000.000000                       # Energy for refresh commands per rank (pJ) (Joule)
system.mem_ctrls.dram.rank1.actBackEnergy  13435175310                       # Energy for active background per rank (pJ) (Joule)
system.mem_ctrls.dram.rank1.preBackEnergy    123532800                       # Energy for precharge background per rank (pJ) (Joule)
system.mem_ctrls.dram.rank1.actPowerDownEnergy            0                       # Energy for active power-down per rank (pJ) (Joule)
system.mem_ctrls.dram.rank1.prePowerDownEnergy            0                       # Energy for precharge power-down per rank (pJ) (Joule)
system.mem_ctrls.dram.rank1.selfRefreshEnergy            0                       # Energy for self refresh per rank (pJ) (Joule)
system.mem_ctrls.dram.rank1.totalEnergy   24446385420                       # Total energy per rank (pJ) (Joule)
system.mem_ctrls.dram.rank1.averagePower   820.767068                       # Core power per rank (mW) (Watt)
system.mem_ctrls.dram.rank1.totalIdleTime            0                       # Total Idle time Per DRAM Rank (Tick)
system.mem_ctrls.dram.rank1.pwrStateTime::IDLE    212830250                       # Time in different power states (Tick)
system.mem_ctrls.dram.rank1.pwrStateTime::REF    994500000                       # Time in different power states (Tick)
system.mem_ctrls.dram.rank1.pwrStateTime::SREF            0                       # Time in different power states (Tick)
system.mem_ctrls.dram.rank1.pwrStateTime::PRE_PDN            0                       # Time in different power states (Tick)
system.mem_ctrls.dram.rank1.pwrStateTime::ACT  28577472750                       # Time in different power states (Tick)
system.mem_ctrls.dram.rank1.pwrStateTime::ACT_PDN            0                       # Time in different power states (Tick)
system.mem_ctrls.power_state.pwrStateResidencyTicks::UNDEFINED  29784803000                       # Cumulative time (in ticks) in various power states (Tick)
system.membus.transDist::ReadResp             1438965                       # Transaction distribution (Count)
system.membus.transDist::WritebackDirty          1886                       # Transaction distribution (Count)
system.membus.transDist::WritebackClean            19                       # Transaction distribution (Count)
system.membus.transDist::CleanEvict           1435702                       # Transaction distribution (Count)
system.membus.transDist::ReadExReq                115                       # Transaction distribution (Count)
system.membus.transDist::ReadExResp               115                       # Transaction distribution (Count)
system.membus.transDist::ReadCleanReq             469                       # Transaction distribution (Count)
system.membus.transDist::ReadSharedReq        1438497                       # Transaction distribution (Count)
system.membus.pktCount_system.cpu.icache.mem_side_port::system.mem_ctrls.port          956                       # Packet count per connected requestor and responder (Count)
system.membus.pktCount_system.cpu.icache.mem_side_port::total          956                       # Packet count per connected requestor and responder (Count)
system.membus.pktCount_system.cpu.dcache.mem_side_port::system.mem_ctrls.port      4314812                       # Packet count per connected requestor and responder (Count)
system.membus.pktCount_system.cpu.dcache.mem_side_port::total      4314812                       # Packet count per connected requestor and responder (Count)
system.membus.pktCount::total                 4315768                       # Packet count per connected requestor and responder (Count)
system.membus.pktSize_system.cpu.icache.mem_side_port::system.mem_ctrls.port        31168                       # Cumulative packet size per connected requestor and responder (Byte)
system.membus.pktSize_system.cpu.icache.mem_side_port::total        31168                       # Cumulative packet size per connected requestor and responder (Byte)
system.membus.pktSize_system.cpu.dcache.mem_side_port::system.mem_ctrls.port     92191872                       # Cumulative packet size per connected requestor and responder (Byte)
system.membus.pktSize_system.cpu.dcache.mem_side_port::total     92191872                       # Cumulative packet size per connected requestor and responder (Byte)
system.membus.pktSize::total                 92223040                       # Cumulative packet size per connected requestor and responder (Byte)
system.membus.snoops                                0                       # Total snoops (Count)
system.membus.snoopTraffic                          0                       # Total snoop traffic (Byte)
system.membus.snoopFanout::samples            1439081                       # Request fanout histogram (Count)
system.membus.snoopFanout::mean                     0                       # Request fanout histogram (Count)
system.membus.snoopFanout::stdev                    0                       # Request fanout histogram (Count)
system.membus.snoopFanout::underflows               0      0.00%      0.00% # Request fanout histogram (Count)
system.membus.snoopFanout::0                  1439081    100.00%    100.00% # Request fanout histogram (Count)
system.membus.snoopFanout::1                        0      0.00%    100.00% # Request fanout histogram (Count)
system.membus.snoopFanout::2                        0      0.00%    100.00% # Request fanout histogram (Count)
system.membus.snoopFanout::3                        0      0.00%    100.00% # Request fanout histogram (Count)
system.membus.snoopFanout::4                        0      0.00%    100.00% # Request fanout histogram (Count)
system.membus.snoopFanout::overflows                0      0.00%    100.00% # Request fanout histogram (Count)
system.membus.snoopFanout::min_value                0                       # Request fanout histogram (Count)
system.membus.snoopFanout::max_value                0                       # Request fanout histogram (Count)
system.membus.snoopFanout::total              1439081                       # Request fanout histogram (Count)
system.membus.power_state.pwrStateResidencyTicks::UNDEFINED  29784803000                       # Cumulative time (in ticks) in various power states (Tick)
system.membus.reqLayer2.occupancy          2884308000                       # Layer occupancy (ticks) (Tick)
system.membus.reqLayer2.utilization               0.1                       # Layer utilization (Ratio)
system.membus.respLayer1.occupancy            2489500                       # Layer occupancy (ticks) (Tick)
system.membus.respLayer1.utilization              0.0                       # Layer utilization (Ratio)
system.membus.respLayer2.occupancy         7665614250                       # Layer occupancy (ticks) (Tick)
system.membus.respLayer2.utilization              0.3                       # Layer utilization (Ratio)
system.membus.snoop_filter.totRequests        2876688                       # Total number of requests made to the snoop filter. (Count)
system.membus.snoop_filter.hitSingleRequests      1437607                       # Number of requests hitting in the snoop filter with a single holder of the requested data. (Count)
system.membus.snoop_filter.hitMultiRequests            0                       # Number of requests hitting in the snoop filter with multiple (>1) holders of the requested data. (Count)
system.membus.snoop_filter.totSnoops                0                       # Total number of snoops made to the snoop filter. (Count)
system.membus.snoop_filter.hitSingleSnoops            0                       # Number of snoops hitting in the snoop filter with a single holder of the requested data. (Count)
system.membus.snoop_filter.hitMultiSnoops            0                       # Number of snoops hitting in the snoop filter with multiple (>1) holders of the requested data. (Count)
system.voltage_domain.voltage                       1                       # Voltage in Volts (Volt)
system.workload.inst.arm                            0                       # number of arm instructions executed (Count)
system.workload.inst.quiesce                        0                       # number of quiesce instructions executed (Count)

---------- End Simulation Statistics   ----------
